77
Co1 La1 O3
La	 3.79328 3.94096 10.23004
La	 7.71393 0.20426 10.10237
La	 7.76899 4.05798 10.21001
La	 3.80716 0.11709 10.18908
La	 0.13652 3.78622 6.29583
La	 3.95843 7.69520 6.32585
La	 4.06889 3.82529 6.30016
La	 0.13008 7.72385 6.28921
La	 7.73531 4.01267 2.36444
La	 7.69604 0.10314 2.38077
La	 3.82828 0.11322 2.35429
La	 3.81429 4.00032 2.36328
Co	 5.85185 1.92212 11.99478
Co	 1.76801 6.03153 12.21735
Co	 1.75787 1.88189 12.10224
Co	 5.93176 5.98843 12.08470
Co	 5.86406 1.99262 8.21306
Co	 1.96202 5.85964 8.25454
Co	 1.96664 2.01390 8.22961
Co	 5.85544 5.85534 8.25321
Co	 1.98526 1.96703 4.40299
Co	 1.96990 5.86515 4.40449
Co	 5.86591 5.88528 4.40674
Co	 5.85929 1.96916 4.41078
Co	 1.88145 2.01320 0.55977
Co	 1.91428 5.94620 0.55087
Co	 5.78150 5.90817 0.55454
Co	 5.80492 2.04802 0.57952
O	 6.04051 4.03625 12.40817
O	 2.05768 0.14530 12.11251
O	 7.64948 1.91786 12.28290
O	 3.85347 5.89449 12.17771
O	 0.02474 6.02727 11.85952
O	 4.03794 2.07322 11.79439
O	 1.94270 3.85730 12.33116
O	 5.79661 0.01262 11.58482
O	 6.18333 2.31438 10.05506
O	 2.23513 5.89568 10.16544
O	 5.66557 5.46713 10.19718
O	 1.64884 2.01613 10.13607
O	 1.66159 3.94162 8.43464
O	 5.64068 0.08026 8.55331
O	 0.02090 6.09798 8.52875
O	 3.89078 2.23487 8.56436
O	 0.03243 1.70501 7.92504
O	 3.89929 5.64920 7.99795
O	 6.09261 3.88012 7.89366
O	 2.22530 0.04632 8.10411
O	 2.23489 2.26866 6.32239
O	 6.04352 6.20008 6.29172
O	 1.63021 5.69583 6.32792
O	 5.52119 1.70316 6.31796
O	 0.03709 1.75830 4.69551
O	 2.19214 0.02815 4.68643
O	 3.90295 5.64755 4.70100
O	 6.07931 3.91294 4.68619
O	 0.02975 6.11378 4.10465
O	 5.62904 0.04193 4.10016
O	 3.91016 2.20694 4.09374
O	 1.72976 3.91800 4.11240
O	 5.65104 5.59578 2.56576
O	 2.26603 6.07606 2.54355
O	 1.76973 1.66527 2.56122
O	 6.17793 2.18402 2.55720
O	 7.62388 5.92329 0.74637
O	 5.79595 0.20655 0.74765
O	 3.72879 2.02916 0.74930
O	 1.90259 4.09031 0.75175
O	 0.10504 2.03245 0.45963
O	 1.89986 7.72059 0.41721
O	 4.00877 5.92388 0.43024
O	 5.79082 3.82123 0.45818
O	 5.08818 6.08661 14.00073
O	 2.78280 5.87865 14.10700
C	 3.91806 5.96089 13.52640
H	 6.40183 3.98530 13.31316
H	 2.28120 3.97369 13.24397
