75
Co1 La1 O3
La	 3.91298 3.90141 10.09062
La	 0.01566 0.24948 10.19898
La	 0.02194 4.06429 9.99362
La	 3.89352 0.07923 10.21943
La	 0.20084 3.78259 6.24256
La	 3.99460 7.72765 6.36290
La	 4.06592 3.82264 6.29610
La	 0.19632 7.76894 6.34616
La	 7.73531 4.01267 2.36444
La	 7.69604 0.10314 2.38077
La	 3.82828 0.11322 2.35429
La	 3.81429 4.00032 2.36328
Co	 5.86554 2.11435 12.18407
Co	 1.80376 6.07875 12.16864
Co	 1.96747 1.98906 12.07804
Co	 5.99473 6.03396 12.06662
Co	 5.91573 2.00429 8.23595
Co	 2.04132 5.86927 8.26504
Co	 2.02309 2.03242 8.22850
Co	 5.89442 5.92017 8.25062
Co	 2.01189 1.96587 4.40279
Co	 1.99832 5.89642 4.41200
Co	 5.88304 5.89309 4.42393
Co	 5.87555 1.96640 4.41472
Co	 1.88145 2.01320 0.55977
Co	 1.91428 5.94620 0.55087
Co	 5.78150 5.90817 0.55454
Co	 5.80492 2.04802 0.57952
O	 6.10346 4.12353 12.74636
O	 2.02061 0.13211 11.71617
O	 0.22919 2.32811 12.31170
O	 4.00720 5.76895 12.69517
O	 0.02277 5.85676 11.57474
O	 3.79394 2.33635 11.96006
O	 5.84142 0.06734 11.92775
O	 6.14654 2.27206 10.12405
O	 2.39793 5.70392 10.16950
O	 5.50915 5.66171 10.16087
O	 1.72481 2.23878 10.09379
O	 1.74271 3.96776 8.19659
O	 5.67477 0.06533 8.56157
O	 0.06367 6.18620 8.56530
O	 3.97001 2.19892 8.48538
O	 0.07284 1.76299 7.97912
O	 3.96545 5.66161 7.89337
O	 6.16565 3.96737 7.95787
O	 2.28436 0.05073 8.27511
O	 2.32252 2.14333 6.32871
O	 6.12531 6.27119 6.33809
O	 1.72911 5.81207 6.32088
O	 5.64015 1.78318 6.31713
O	 0.09995 1.71122 4.70124
O	 2.30896 0.07718 4.65074
O	 4.00122 5.63292 4.69396
O	 6.14811 4.00012 4.67709
O	 7.76699 6.14687 4.13082
O	 5.58224 7.77613 4.12636
O	 3.90712 2.29276 4.11428
O	 1.69712 3.89793 4.17129
O	 5.65104 5.59578 2.56576
O	 2.26603 6.07606 2.54355
O	 1.76973 1.66527 2.56122
O	 6.17793 2.18402 2.55720
O	 7.62388 5.92329 0.74637
O	 5.79595 0.20655 0.74765
O	 3.72879 2.02916 0.74930
O	 1.90259 4.09031 0.75175
O	 0.10504 2.03245 0.45963
O	 1.89986 7.72059 0.41721
O	 4.00877 5.92388 0.43024
O	 5.79082 3.82123 0.45818
O	 2.30520 5.02205 13.87818
C	 3.55181 5.15562 13.73410
H	 4.25870 4.75293 14.47659
H	 7.04916 3.96466 12.96931
