112
Co1 La1 O3                              
La    3.856096    3.915124   10.157570
La    7.635869    0.165670   10.165048
La    7.685499    4.027426   10.091996
La    3.834337    0.213191   10.229783
La    0.126954    3.805801    6.270932
La    4.005692    7.659032    6.324845
La    4.071527    3.810174    6.281699
La    0.132942    7.744470    6.313349
La    7.735314    4.012669    2.364443
La    7.696040    0.103143    2.380770
La    3.828278    0.113219    2.354293
La    3.814292    4.000322    2.363276
Co    5.835180    2.005071   12.078225
Co    1.848376    6.083717   12.123617
Co    1.895636    1.991514   12.200628
Co    5.988881    6.010042   12.196040
Co    5.851365    1.982225    8.212995
Co    2.003950    5.876626    8.270947
Co    1.951009    1.988056    8.243710
Co    5.848057    5.852480    8.258616
Co    1.984438    1.964436    4.407635
Co    1.962123    5.866086    4.400030
Co    5.874638    5.876359    4.414931
Co    5.864261    1.959900    4.409932
Co    1.881451    2.013203    0.559771
Co    1.914284    5.946199    0.550869
Co    5.781505    5.908168    0.554536
Co    5.804921    2.048015    0.579520
 O    5.757819    4.109110   12.774470
 O    2.199004    7.784234   12.394825
 O    7.670463    2.140243   12.259250
 O    0.076582    5.853866   11.656766
 O    3.969937    2.136036   11.897786
 O    2.343374    4.200501   12.538424
 O    5.732897    0.053605   11.676986
 O    6.040695    2.329510   10.083920
 O    2.514520    5.961100   10.278719
 O    5.585141    5.476959   10.156242
 O    1.699801    1.855123   10.145931
 O    1.752437    3.938723    8.468186
 O    5.626647    0.039092    8.582056
 O    7.775067    6.092381    8.594026
 O    3.894540    2.207896    8.494055
 O    0.005057    1.729790    7.977785
 O    3.968770    5.639834    7.891869
 O    6.124840    3.913836    7.912961
 O    2.171542    0.029236    8.079636
 O    2.187756    2.289653    6.319645
 O    6.114825    6.206259    6.332077
 O    1.638790    5.695648    6.291820
 O    5.557512    1.694908    6.321501
 O    0.028881    1.749959    4.683148
 O    2.203616    0.025639    4.701324
 O    3.924015    5.640732    4.695522
 O    6.095205    3.911299    4.677790
 O    0.018755    6.108930    4.092242
 O    5.620596    0.030432    4.111636
 O    3.919112    2.209527    4.099595
 O    1.726878    3.917895    4.101320
 O    5.651041    5.595778    2.565762
 O    2.266034    6.076056    2.543548
 O    1.769730    1.665273    2.561216
 O    6.177926    2.184018    2.557198
 O    7.623882    5.923288    0.746371
 O    5.795953    0.206547    0.747651
 O    3.728792    2.029157    0.749299
 O    1.902587    4.090308    0.751749
 O    0.105043    2.032453    0.459635
 O    1.899859    7.720592    0.417210
 O    4.008773    5.923876    0.430238
 O    5.790822    3.821227    0.458180
 O    6.102025    6.589849   14.347797
 C    5.632053    5.968015   15.292624
 H    6.612348    3.958980   13.228260
 H    3.168983    4.035850   13.038034
 H    5.672049    6.392213   16.317650
 H    5.163456    4.971772   15.147419
 O    7.775067   -1.696359    8.594026
 O    7.865322   -1.934874   11.656766
 O    7.793797    1.729790    7.977785
 O    9.488541    1.855123   10.145931
 O    9.541178    3.938723    8.468186
 O    7.865322    5.853866   11.656766
 O    2.514520   -1.827641   10.278719
 O    2.199004   -0.004506   12.394825
 O   -1.693535    3.911299    4.677790
 O   -1.663900    3.913836    7.912961
 O    2.203616    7.814379    4.701324
 O    2.171542    7.817976    8.079636
 O    5.620596    7.819173    4.111636
 O    5.557512    9.483648    6.321501
 O    5.626647    7.827832    8.582056
 O   -1.673915    6.206259    6.332077
 O   -0.013673    6.092381    8.594026
 O    0.028881    9.538699    4.683148
 O    0.005057    9.518530    7.977785
 O    7.893784    2.032453    0.459635
 O    9.691327    4.090308    0.751749
 O    9.515618    3.917895    4.101320
 O    7.807496    6.108930    4.092242
 O    7.623882   -1.865452    0.746371
 O    9.688599   -0.068148    0.417210
 O    7.807496   -1.679810    4.092242
 O    9.558470    1.665273    2.561216
 O    7.817622    1.749959    4.683148
 O    2.266034   -1.712684    2.543548
 O    1.899859   -0.068148    0.417210
 O    4.008773   -1.864865    0.430238
 O   -0.118278    2.140243   12.259250
 O    5.732897    7.842346   11.676986
 O   -0.164858    5.923288    0.746371
 O    5.795953    7.995287    0.747651
