115
Co1 La1 O3                              
La    3.761716    3.883498   10.196958
La    7.732534    0.139111   10.152729
La    7.762919    3.988974   10.169112
La    3.831319    0.153788   10.186763
La    0.086923    3.771691    6.281742
La    3.981984    7.640178    6.290353
La    4.065139    3.821182    6.274530
La    0.147200    7.711113    6.305401
La    7.735314    4.012669    2.364443
La    7.696040    0.103143    2.380770
La    3.828278    0.113219    2.354293
La    3.814292    4.000322    2.363276
Co    5.860536    1.921081   11.999113
Co    1.835843    5.982594   11.959545
Co    1.882185    1.986107   12.014327
Co    5.883337    5.965342   11.958779
Co    5.843585    1.960954    8.194042
Co    1.985874    5.843272    8.208425
Co    1.982704    1.980389    8.161230
Co    5.859504    5.851745    8.239568
Co    1.983564    1.971365    4.400899
Co    1.946425    5.850479    4.394590
Co    5.879562    5.887271    4.396976
Co    5.847971    1.949140    4.398839
Co    1.881451    2.013203    0.559771
Co    1.914284    5.946199    0.550869
Co    5.781505    5.908168    0.554536
Co    5.804921    2.048015    0.579520
 O    6.025760    4.038908   12.463860
 O    1.924475    0.047917   12.067632
 O    7.759408    1.989847   12.114622
 O    3.996285    5.890379   12.418879
 O    7.725346    5.949933   11.625264
 O    3.889048    2.050284   11.870281
 O    1.875068    3.981492   11.847405
 O    5.778547    0.012618   11.642803
 O    6.050448    2.309267   10.059688
 O    2.410738    6.011537   10.070098
 O    5.549292    5.508846   10.137676
 O    1.775966    1.746603   10.021289
 O    1.768658    3.934534    8.487075
 O    5.659730    0.048184    8.524178
 O    0.062922    6.049281    8.550189
 O    3.929023    2.169728    8.481165
 O    7.778532    1.747850    7.938305
 O    3.886559    5.655987    7.862590
 O    6.056359    3.874529    7.890248
 O    2.169072    7.778435    7.943212
 O    2.188008    2.250213    6.291864
 O    6.094684    6.138209    6.285012
 O    1.606823    5.633260    6.308826
 O    5.533128    1.695801    6.299728
 O    7.783192    1.720048    4.687586
 O    2.184691    7.777238    4.686384
 O    3.891942    5.624154    4.681873
 O    6.083982    3.886428    4.680520
 O    0.030869    6.107947    4.084865
 O    5.603015    0.041515    4.087186
 O    3.934486    2.216867    4.086243
 O    1.716215    3.936268    4.098899
 O    5.651041    5.595778    2.565762
 O    2.266034    6.076056    2.543548
 O    1.769730    1.665273    2.561216
 O    6.177926    2.184018    2.557198
 O    7.623882    5.923288    0.746371
 O    5.795953    0.206547    0.747651
 O    3.728792    2.029157    0.749299
 O    1.902587    4.090308    0.751749
 O    0.105043    2.032453    0.459635
 O    1.899859    7.720592    0.417210
 O    4.008773    5.923876    0.430238
 O    5.790822    3.821227    0.458180
 O    4.200958    6.219021   13.836729
 C    3.839434    5.078778   14.627634
 H    6.873175    3.971315   12.948606
 H    4.047810    5.402980   15.657265
 H    2.767771    4.850674   14.516502
 H    4.443561    4.201951   14.359714
 O    7.725346   -1.838807   11.625264
 O    7.851663   -1.739460    8.550189
 O    9.564706    1.746603   10.021289
 O    9.713215    0.047917   12.067632
 O    9.557399    3.934534    8.487075
 O    9.663809    3.981492   11.847405
 O    7.851663    6.049281    8.550189
 O    2.169072   -0.010305    7.943212
 O    2.410738   -1.777203   10.070098
 O   -0.005548    1.720048    4.687586
 O   -0.010208    1.747850    7.938305
 O   -1.704759    3.886428    4.680520
 O   -1.732382    3.874529    7.890248
 O    5.603015    7.830255    4.087186
 O    5.533128    9.484541    6.299728
 O    5.659730    7.836924    8.524178
 O   -1.694056    6.138209    6.285012
 O   -0.005548    9.508788    4.687586
 O   -0.010208    9.536590    7.938305
 O    7.893784    2.032453    0.459635
 O    9.691327    4.090308    0.751749
 O    9.504955    3.936268    4.098899
 O    7.819609    6.107947    4.084865
 O    7.623882   -1.865452    0.746371
 O    9.688599   -0.068148    0.417210
 O    7.819609   -1.680793    4.084865
 O    9.558470    1.665273    2.561216
 O    2.266034   -1.712684    2.543548
 O    1.899859   -0.068148    0.417210
 O    2.184691   -0.011502    4.686384
 O    4.008773   -1.864865    0.430238
 O   -0.063394    5.949933   11.625264
 O    1.924475    7.836658   12.067632
 O   -0.029332    1.989847   12.114622
 O    5.778547    7.801359   11.642803
 O   -0.164858    5.923288    0.746371
 O    5.795953    7.995287    0.747651
