122
Co1 La1 O3                              
La    3.835210    3.885962   10.148661
La    7.753650    0.044061    6.380562
La    3.921784    3.823646    2.168255
Sr    0.022163    0.074385   10.267647
Sr    7.796301    3.965302   10.244312
Sr    3.884543    0.007439   10.201871
Sr    3.885214    7.757272    6.359962
Sr    7.776640    3.996760    6.369354
Sr    3.886892    3.894754    6.337346
Sr    0.019020    0.092755    2.411032
Sr    3.892584    7.761866    2.351544
Sr    0.061062    3.915056    2.345680
Co    5.846481    1.938369   12.088362
Co    1.862123    5.926599   12.113726
Co    1.962013    1.953908   12.092692
Co    5.860820    5.981342   12.161063
Co    5.836477    1.989089    8.273795
Co    1.930330    5.885453    8.281221
Co    1.928862    1.966035    8.248800
Co    5.838336    5.869175    8.301158
Co    1.950723    1.981904    4.391979
Co    1.942899    5.855417    4.395689
Co    5.838848    5.863470    4.385101
Co    5.836786    1.972040    4.393796
Co    1.886440    1.906914    0.508629
Co    1.928703    5.949945    0.578501
Co    5.970188    5.875722    0.607562
Co    5.912933    1.836749    0.549152
 O    3.771228    5.631522   12.586336
 O    7.609312    1.911413   12.219992
 O    1.903749    3.732956   12.145107
 O    6.037760    4.095020   12.677026
 O    5.752127    7.728200   12.058763
 O    2.031140    0.164204   12.114853
 O    4.055648    2.099909   12.029855
 O    0.104199    5.939537   12.115291
 O    5.894527    2.325841   10.170519
 O    2.254657    5.805199   10.233875
 O    5.522659    5.605225   10.279029
 O    1.885700    2.012919   10.070747
 O    0.008273    5.885997    8.573053
 O    3.990519    2.016293    8.375079
 O    1.894616    7.751817    8.317935
 O    5.852253    7.699155    8.490208
 O    5.822575    4.046879    8.118356
 O    1.970684    3.991412    8.264837
 O    7.672461    1.929597    8.166545
 O    3.860442    5.848743    8.052574
 O    1.992694    1.874868    6.440738
 O    6.114837    6.091980    6.358849
 O    1.607176    5.992707    6.355879
 O    5.749742    1.690133    6.349833
 O    3.719997    5.854766    4.618524
 O    7.653422    1.895201    4.526359
 O    1.910754    3.758699    4.547487
 O    5.868493    4.082875    4.566156
 O    5.835491    7.662846    4.238968
 O    1.955618    0.181788    4.326855
 O    4.041460    2.039690    4.273281
 O    0.146449    5.908144    4.177878
 O    5.491886    5.700779    2.470774
 O    2.191397    5.562040    2.467714
 O    1.971258    2.160386    2.453300
 O    5.942189    2.231042    2.456487
 O    0.158728    5.875275    0.679805
 O    4.148695    1.930308    0.526534
 O    1.939496    0.133434    0.608371
 O    5.886586    7.640979    0.629358
 O    5.843217    4.164930    0.397220
 O    1.995107    3.624521    0.332210
 O    7.658382    1.918373    0.422671
 O    3.618376    5.833186    0.326224
 H    6.912080    3.997583   13.107837
 H    3.804431    4.821184   13.135038
 O    5.835491   -0.134734    4.238968
 O    6.114837   -1.705600    6.358849
 O    5.852253   -0.098425    8.490208
 O    9.692196   -0.045763    8.317935
 O    9.404756   -1.804873    6.355879
 O    9.753198    0.181788    4.326855
 O    9.790273    1.874868    6.440738
 O   -1.945327   -0.098425    8.490208
 O   -2.045453   -0.069380   12.058763
 O   -0.125118    1.929597    8.166545
 O   -1.903053    2.325841   10.170519
 O   -0.188268    1.911413   12.219992
 O    1.894616   -0.045763    8.317935
 O    0.008273   -1.911583    8.573053
 O    0.104199   -1.858043   12.115291
 O    9.683279    2.012919   10.070747
 O    9.768263    3.991412    8.264837
 O    9.701328    3.732956   12.145107
 O   10.052237    5.805199   10.233875
 O    7.805852    5.885997    8.573053
 O    7.901779    5.939537   12.115291
 O    2.254657   -1.992380   10.233875
 O    3.860442   -1.948836    8.052574
 O    5.522659   -2.192354   10.279029
 O    5.752127   -0.069380   12.058763
 O    1.955618    7.979368    4.326855
 O    1.992694    9.672447    6.440738
 O    4.041460    9.837270    4.273281
 O    3.990519    9.813872    8.375079
 O    5.749742    9.487713    6.349833
 O    9.708333    3.758699    4.547487
 O    7.944028    5.908144    4.177878
 O    9.404756    5.992707    6.355879
 O   -1.910994   -0.156600    0.629358
 O   -1.962089   -0.134734    4.238968
 O   -1.855391    2.231042    2.456487
 O   -0.139198    1.918373    0.422671
 O   -0.144158    1.895201    4.526359
 O    0.158728   -1.922304    0.679805
 O    0.146449   -1.889436    4.177878
 O    1.971258    9.957966    2.453300
 O    1.939496    7.931013    0.608371
 O    4.148695    9.727887    0.526534
 O   -1.954362    4.164930    0.397220
 O   -2.305694    5.700779    2.470774
 O    2.031140    7.961783   12.114853
 O    7.956308    5.875275    0.679805
 O    5.886586   -0.156600    0.629358
