126
Co1 Sr1 O3                              
Sr    3.843264    3.805121    9.724081
Sr    7.783106    0.102886    9.815541
Sr    7.772989    3.905295    9.829152
Sr    3.884479    7.742034    9.713266
Sr    0.001929    3.905794    5.870053
Sr    3.860880    0.006570    5.840724
Sr    3.989636    3.914240    5.865800
Sr    7.713572    7.787864    5.885467
Sr    0.025520    3.936150    1.985881
Sr    7.728022    7.757678    1.873987
Sr    3.851681    7.735316    1.715406
Sr    3.985810    3.901940    1.909655
Co    5.685042    1.830069   11.666913
Co    1.860550    5.874641   11.708945
Co    1.978092    1.849981   11.617220
Co    6.001720    5.930734   11.732352
Co    5.855335    1.964693    7.795484
Co    1.938497    5.843798    7.829360
Co    1.920154    1.908769    7.766411
Co    5.816449    5.843177    7.872346
Co    1.963234    1.958603    3.931464
Co    1.951912    5.846571    3.920455
Co    5.848921    5.849581    3.924163
Co    5.841111    1.923378    3.887381
Co    1.906600    2.200296    0.105419
Co    1.786621    5.793017    0.050030
Co    5.868656    5.680528    0.057140
Co    6.030442    1.961405    0.093967
 O    6.083111    3.689003   12.116075
 O    2.040435    7.637356   11.470711
 O    0.299757    1.860052   11.907034
 O    4.192221    5.807211   12.500949
 O    7.725485    5.932374   11.681664
 O    3.752631    1.991074   11.656945
 O    1.909922    4.162015   11.817876
 O    5.787678    0.098432   11.786417
 O    5.959175    2.033975    9.817460
 O    2.187515    5.651625    9.754395
 O    5.527330    5.737412    9.902870
 O    1.830517    2.207237    9.764526
 O    1.979234    4.076794    7.603805
 O    5.861618    0.165731    7.877579
 O    7.601743    5.821548    8.061309
 O    3.690674    1.895815    7.858192
 O    0.154302    2.034721    7.843205
 O    4.032462    5.914049    7.671818
 O    5.742414    3.752392    7.899829
 O    1.874674    7.631745    8.031167
 O    1.867830    1.642692    5.890456
 O    6.023605    5.700512    5.872728
 O    1.800150    6.122092    5.864530
 O    5.910622    2.044901    5.894728
 O    0.152543    1.923094    3.766655
 O    2.000925    7.624404    3.664413
 O    4.067883    5.799628    4.018433
 O    5.881306    3.720906    3.769474
 O    7.644408    5.864539    3.788563
 O    5.835667    0.147406    4.038538
 O    3.763030    1.991702    4.036539
 O    1.921590    4.043879    4.089667
 O    5.766477    6.077759    1.948410
 O    2.082240    5.576932    1.928889
 O    2.174525    2.054681    1.905695
 O    5.583955    1.761319    1.943976
 O    7.638483    5.775157    0.061657
 O    5.891673    0.304887   25.102504
 O    3.496949    1.883590   24.973864
 O    1.917198    3.996781   25.158205
 O    0.153281    1.985105    0.145061
 O    1.887932    7.479724    0.022017
 O    4.181255    5.801158   25.170521
 O    5.855937    3.720358    0.131690
 O    2.363428    6.073131   13.722086
 C    3.612523    5.999537   13.632228
 H    4.227075    6.101250   14.544156
 H    6.914063    3.619608   12.632780
 O    7.601743   -1.970872    8.061309
 O    7.725485   -1.860046   11.681664
 O    9.667094   -0.160675    8.031167
 O    9.832855   -0.155064   11.470711
 O    7.946722    2.034721    7.843205
 O    9.622937    2.207237    9.764526
 O    8.092177    1.860052   11.907034
 O    9.702342    4.162015   11.817876
 O    9.979935    5.651625    9.754395
 O    3.690674    9.688235    7.858192
 O    3.752631    9.783494   11.656945
 O    5.861618    7.958151    7.877579
 O    5.959175    9.826395    9.817460
 O    5.787678    7.890852   11.786417
 O   -1.881798    2.044901    5.894728
 O   -1.911114    3.720906    3.769474
 O   -2.050006    3.752392    7.899829
 O   -0.148012    5.864539    3.788563
 O   -0.190677    5.821548    8.061309
 O   -1.768815    5.700512    5.872728
 O    2.000925   -0.168016    3.664413
 O    1.874674   -0.160675    8.031167
 O    1.800150   -1.670328    5.864530
 O    4.067883   -1.992792    4.018433
 O    4.032462   -1.878371    7.671818
 O    5.835667    7.939826    4.038538
 O    5.910622    9.837320    5.894728
 O    9.667094    7.631745    8.031167
 O    9.592570    6.122092    5.864530
 O    7.944962    9.715514    3.766655
 O    7.946722    9.827141    7.843205
 O    9.660249    9.435112    5.890456
 O   -1.936483    3.720358    0.131690
 O   -2.025943    6.077759    1.948410
 O   -0.153937    5.775157    0.061657
 O    1.917198    3.996781   -0.167160
 O    5.891673    8.097307   -0.222861
 O    5.583955    9.553739    1.943976
 O    9.680352    7.479724    0.022017
 O    9.793345    7.624404    3.664413
 O    7.945700    9.777525    0.145061
 O    2.174525    9.847101    1.905695
 O    4.181255    5.801158   -0.154844
 O    3.496949    9.676010   -0.351501
 O   -0.066935    5.932374   11.681664
 O    2.040435   -0.155064   11.470711
 O    7.944962    1.923094    3.766655
 O    3.496949    1.883590   -0.351501
 O    5.891673    0.304887   -0.222861
 O    7.945700    1.985105    0.145061
