128
Co1 Sr1 O3                              
Sr    3.911874    3.921375    9.695412
Sr    7.673006    0.061693    9.788132
Sr    0.015496    3.887589    9.869895
Sr    3.892347    7.675960    9.679156
Sr    0.002476    3.914077    5.875963
Sr    3.843917    0.005911    5.823371
Sr    3.975998    3.931190    5.847195
Sr    7.718497    0.004152    5.865740
Sr    0.025520    3.936150    1.985881
Sr    7.728022    7.757678    1.873987
Sr    3.851681    7.735316    1.715406
Sr    3.985810    3.901940    1.909655
Co    5.514664    1.833694   11.644807
Co    1.869507    5.909387   11.675036
Co    2.039988    1.712135   11.581444
Co    5.963076    5.920861   11.805016
Co    5.824196    1.975245    7.806223
Co    1.920279    5.858142    7.816996
Co    1.935699    1.952226    7.799460
Co    5.846153    5.838896    7.846723
Co    1.951304    1.968743    3.935873
Co    1.944019    5.843788    3.915587
Co    5.843237    5.856722    3.907524
Co    5.832692    1.932829    3.895487
Co    1.906600    2.200296    0.105419
Co    1.786621    5.793017    0.050030
Co    5.868656    5.680528    0.057140
Co    6.030442    1.961405    0.093967
 O    6.162621    3.701967   12.108098
 O    2.292158    7.640988   11.750300
 O    0.366424    1.775105   11.780021
 O    4.012024    5.464182   12.012920
 O    7.726253    6.096298   11.647545
 O    3.709196    2.259139   11.941187
 O    1.643775    4.299541   12.112390
 O    5.608035    0.084597   11.747593
 O    5.851016    2.068065    9.819154
 O    2.146890    5.675745    9.762310
 O    5.658409    5.808255    9.805757
 O    2.056586    2.199047    9.786526
 O    1.978632    4.072346    7.631368
 O    5.866683    0.178132    7.833612
 O    7.627622    5.817063    7.997310
 O    3.734325    1.913447    7.724658
 O    0.152523    2.015183    7.926213
 O    4.050007    5.904105    7.679896
 O    5.790473    3.763643    7.828606
 O    1.877785    7.647149    8.015059
 O    1.809215    1.696659    5.847436
 O    5.995937    5.743073    5.873413
 O    1.812719    6.079423    5.861506
 O    5.991693    2.050570    5.850764
 O    0.170533    1.921301    3.720562
 O    1.995410    7.606845    3.670770
 O    4.059745    5.803791    3.996609
 O    5.871547    3.734002    3.759641
 O    7.642054    5.872057    3.790617
 O    5.823239    0.154220    4.025025
 O    3.731949    1.994153    4.037441
 O    1.913639    4.050099    4.076144
 O    5.766477    6.077759    1.948410
 O    2.082240    5.576932    1.928889
 O    2.174525    2.054681    1.905695
 O    5.583955    1.761319    1.943976
 O    7.638483    5.775157    0.061657
 O    5.891673    0.304887   25.102504
 O    3.496949    1.883590   24.973864
 O    1.917198    3.996781   25.158205
 O    0.153281    1.985105    0.145061
 O    1.887932    7.479724    0.022017
 O    4.181255    5.801158   25.170521
 O    5.855937    3.720358    0.131690
 O    6.108027    6.070831   14.069263
 C    5.475514    5.375114   14.848727
 H    7.023742    3.577063   12.561856
 H    5.616633    5.498264   15.943769
 H    3.904104    4.584804   12.435780
 H    4.754855    4.607713   14.501274
 O    7.627622   -1.975356    7.997310
 O    5.658409   -1.984165    9.805757
 O    7.726253   -1.696122   11.647545
 O    9.670205   -0.145271    8.015059
 O    7.944943    2.015183    7.926213
 O    8.158844    1.775105   11.780021
 O   -1.941404    2.068065    9.819154
 O   -2.001947    3.763643    7.828606
 O   -1.629799    3.701967   12.108098
 O   -0.164798    5.817063    7.997310
 O   -2.134011    5.808255    9.805757
 O   -0.066167    6.096298   11.647545
 O    2.056586    9.991467    9.786526
 O    3.734325    9.705867    7.724658
 O    5.866683    7.970552    7.833612
 O    5.851016    9.860485    9.819154
 O    5.608035    7.877017   11.747593
 O   -1.800727    2.050570    5.850764
 O   -1.920873    3.734002    3.759641
 O   -0.150366    5.872057    3.790617
 O   -1.796483    5.743073    5.873413
 O    1.995410   -0.185575    3.670770
 O    1.877785   -0.145271    8.015059
 O    1.812719   -1.712997    5.861506
 O    4.059745   -1.988629    3.996609
 O    4.050007   -1.888315    7.679896
 O    5.995937   -2.049347    5.873413
 O    7.642054   -1.920363    3.790617
 O    9.605139   -1.712997    5.861506
 O    7.962953    1.921301    3.720562
 O    9.601635    1.696659    5.847436
 O   -1.936483    3.720358    0.131690
 O   -2.025943    6.077759    1.948410
 O   -0.153937    5.775157    0.061657
 O    1.917198    3.996781   -0.167160
 O    5.891673    8.097307   -0.222861
 O    5.583955    9.553739    1.943976
 O    5.823239    7.946640    4.025025
 O    9.680352    7.479724    0.022017
 O    9.787830    7.606845    3.670770
 O    7.945700    9.777525    0.145061
 O    7.962953    9.713721    3.720562
 O    2.174525    9.847101    1.905695
 O    4.181255    5.801158   -0.154844
 O    3.496949    9.676010   -0.351501
 O    2.292158   -0.151432   11.750300
 O    3.496949    1.883590   -0.351501
 O    5.891673    0.304887   -0.222861
 O    7.945700    1.985105    0.145061
 H   -0.768677    3.577063   12.561856
