129
Co1 Sr1 O3                              
Sr    3.959557    3.914814    9.831546
Sr    7.645216    0.059629    9.706847
Sr    7.729367    3.927947    9.785287
Sr    3.848092    0.063779    9.773010
Sr    0.041487    3.896595    5.931629
Sr    3.811290    7.777675    5.817813
Sr    3.934295    3.906985    5.874316
Sr    7.735400    7.774212    5.841359
Sr    0.025520    3.936150    1.985881
Sr    7.728022    7.757678    1.873987
Sr    3.851681    7.735316    1.715406
Sr    3.985810    3.901940    1.909655
Co    5.862169    1.872675   11.645809
Co    1.747017    5.996996   11.586035
Co    1.797497    1.988949   11.548480
Co    5.926259    5.892462   11.924101
Co    5.710280    1.943093    7.728664
Co    1.941759    5.885116    7.805386
Co    1.862350    1.952029    7.789621
Co    5.800604    5.855997    7.786699
Co    1.950718    1.958048    3.919523
Co    1.941529    5.835092    3.905655
Co    5.833120    5.833875    3.887685
Co    5.850007    1.938817    3.897418
Co    1.906600    2.200296    0.105419
Co    1.786621    5.793017    0.050030
Co    5.868656    5.680528    0.057140
Co    6.030442    1.961405    0.093967
 O    5.843582    4.182699   11.625504
 O    1.919564    0.197605   11.579614
 O    7.629471    1.956730   11.549161
 O    3.875806    5.942263   11.931700
 O    0.013168    5.877469   11.720626
 O    4.185554    1.928903   11.931934
 O    1.881701    3.651284   11.878962
 O    5.889020    7.635013   11.813473
 O    5.682157    1.835784    9.723339
 O    2.075691    5.639630    9.795754
 O    5.744635    6.013031    9.540259
 O    2.261449    2.138363    9.751930
 O    2.092909    3.718688    7.645235
 O    5.951512    0.038410    7.627127
 O    0.158243    5.775042    7.902930
 O    3.889170    1.843216    7.614889
 O    0.038922    2.080492    8.028852
 O    3.735442    5.938297    7.736233
 O    5.756496    3.899157    7.960902
 O    1.878265    0.168892    8.096775
 O    1.723407    1.699566    5.928022
 O    5.889351    5.714445    5.982678
 O    1.841994    6.056127    5.863021
 O    6.002217    2.145044    5.875903
 O    0.144017    1.910014    3.726337
 O    1.988698    7.623538    3.689637
 O    4.055918    5.790098    3.991583
 O    5.874049    3.754929    3.744923
 O    7.625536    5.865773    3.856937
 O    5.817789    0.151370    4.066781
 O    3.742205    1.991213    4.088100
 O    1.899070    4.027676    4.067909
 O    5.766477    6.077759    1.948410
 O    2.082240    5.576932    1.928889
 O    2.174525    2.054681    1.905695
 O    5.583955    1.761319    1.943976
 O    7.638483    5.775157    0.061657
 O    5.891673    0.304887   25.102504
 O    3.496949    1.883590   24.973864
 O    1.917198    3.996781   25.158205
 O    0.153281    1.985105    0.145061
 O    1.887932    7.479724    0.022017
 O    4.181255    5.801158   25.170521
 O    5.855937    3.720358    0.131690
 O    3.205801    6.337839   13.176563
 C    6.084589    5.672840   13.887317
 H    7.017362    5.126157   14.031095
 H    6.102193    6.707033   14.236977
 H    5.179007    5.117216   14.136365
 H    3.153575    7.326650   13.044267
 O    5.744635   -1.779389    9.540259
 O    5.889020   -0.157407   11.813473
 O    7.950663   -2.017378    7.902930
 O    7.805588   -1.914951   11.720626
 O    7.831342    2.080492    8.028852
 O    9.670685    0.168892    8.096775
 O    9.711984    0.197605   11.579614
 O   10.053869    2.138363    9.751930
 O    9.674121    3.651284   11.878962
 O    7.950663    5.775042    7.902930
 O    9.868111    5.639630    9.795754
 O    7.805588    5.877469   11.720626
 O    2.075691   -2.152790    9.795754
 O    3.735442   -1.854123    7.736233
 O    3.875806   -1.850157   11.931700
 O   -1.790203    2.145044    5.875903
 O   -1.918370    3.754929    3.744923
 O   -2.035924    3.899157    7.960902
 O   -0.166884    5.865773    3.856937
 O   -1.903069    5.714445    5.982678
 O    1.723407    9.491985    5.928022
 O    3.742205    9.783633    4.088100
 O    3.889170    9.635636    7.614889
 O    5.817789    7.943790    4.066781
 O    5.951512    7.830830    7.627127
 O    6.002217    9.937464    5.875903
 O    9.781118    7.623538    3.689637
 O    9.634414    6.056127    5.863021
 O    7.936437    9.702433    3.726337
 O    9.670685    7.961312    8.096775
 O    9.515827    9.491985    5.928022
 O   -1.936483    3.720358    0.131690
 O   -2.025943    6.077759    1.948410
 O   -0.153937    5.775157    0.061657
 O    1.917198    3.996781   -0.167160
 O    5.891673    8.097307   -0.222861
 O    5.583955    9.553739    1.943976
 O    9.680352    7.479724    0.022017
 O    7.945700    9.777525    0.145061
 O    2.174525    9.847101    1.905695
 O    4.181255    5.801158   -0.154844
 O    3.496949    9.676010   -0.351501
 O    1.919564    7.990025   11.579614
 O   -0.162949    1.956730   11.549161
 O    1.878265    7.961312    8.096775
 O    1.988698   -0.168882    3.689637
 O    7.936437    1.910014    3.726337
 O    3.496949    1.883590   -0.351501
 O    5.891673    0.304887   -0.222861
 O    7.945700    1.985105    0.145061
Co    9.589917    1.988949   11.548480
