128
Co1 Sr1 O3                              
Sr    3.992944    3.882005   10.018029
Sr    7.730034    0.016836    9.633016
Sr    0.068486    3.848799    9.802337
Sr    3.806794    7.754671    9.812238
Sr    0.056963    3.924414    5.867015
Sr    3.805454    0.007002    5.836401
Sr    3.998773    3.929742    5.876461
Sr    7.734026    7.791544    5.829955
Sr    0.025520    3.936150    1.985881
Sr    7.728022    7.757678    1.873987
Sr    3.851681    7.735316    1.715406
Sr    3.985810    3.901940    1.909655
Co    6.028083    1.829766   11.592506
Co    1.707580    5.872415   11.592704
Co    1.902586    1.758480   11.582746
Co    5.990127    6.110131   11.799430
Co    5.827892    1.955903    7.792414
Co    1.977833    5.824703    7.813901
Co    1.965600    1.966431    7.788382
Co    5.838927    5.858752    7.829525
Co    1.959146    1.968382    3.928868
Co    1.960138    5.857491    3.898485
Co    5.839941    5.861863    3.911971
Co    5.835033    1.950115    3.909366
Co    1.906600    2.200296    0.105419
Co    1.786621    5.793017    0.050030
Co    5.868656    5.680528    0.057140
Co    6.030442    1.961405    0.093967
 O    5.911354    3.492111   11.743326
 O    1.937338    7.618138   11.580992
 O    0.140111    1.816850   11.516684
 O    4.151350    5.648840   11.994131
 O    7.691217    5.901354   11.182246
 O    3.544763    1.950196   11.912922
 O    1.813318    4.236598   11.981651
 O    5.806273    0.160530   12.041510
 O    5.643956    1.694704    9.770519
 O    2.202413    5.636754    9.720002
 O    5.586560    6.029579    9.914917
 O    2.091890    2.215812    9.731609
 O    1.977278    4.059503    7.592376
 O    5.873131    0.162926    7.628292
 O    7.621203    5.810595    7.958783
 O    3.741396    1.916086    7.643515
 O    0.163671    1.992568    7.910868
 O    4.066204    5.887528    7.697337
 O    5.796360    3.731564    8.040477
 O    1.935617    7.627244    7.984218
 O    1.769201    1.696688    5.815842
 O    5.988931    5.611819    5.864097
 O    1.824635    6.112453    5.839442
 O    6.014016    2.210879    5.846395
 O    0.179154    1.934720    3.695004
 O    1.993009    7.621846    3.654064
 O    4.062497    5.823719    3.999558
 O    5.867013    3.737967    3.706380
 O    7.633688    5.882185    3.800955
 O    5.824564    0.177654    4.083203
 O    3.732934    1.999811    4.052926
 O    1.932623    4.065429    4.078692
 O    5.766477    6.077759    1.948410
 O    2.082240    5.576932    1.928889
 O    2.174525    2.054681    1.905695
 O    5.583955    1.761319    1.943976
 O    7.638483    5.775157    0.061657
 O    5.891673    0.304887   25.102504
 O    3.496949    1.883590   24.973864
 O    1.917198    3.996781   25.158205
 O    0.153281    1.985105    0.145061
 O    1.887932    7.479724    0.022017
 O    4.181255    5.801158   25.170521
 O    5.855937    3.720358    0.131690
 O    6.440490    5.732558   13.510447
 C    5.549674    5.873190   14.585047
 H    4.011055    5.199945   12.850007
 H    6.156632    5.933476   15.505850
 H    4.938589    6.789998   14.506535
 H    4.882803    4.993316   14.688905
 O    7.621203   -1.981825    7.958783
 O    7.691217   -1.891066   11.182246
 O    5.586560   -1.762841    9.914917
 O    9.728037   -0.165176    7.984218
 O    9.729757   -0.174281   11.580992
 O    7.956091    1.992568    7.910868
 O    7.932531    1.816850   11.516684
 O   -1.996060    3.731564    8.040477
 O   -1.881066    3.492111   11.743326
 O   -0.171217    5.810595    7.958783
 O   -0.101203    5.901354   11.182246
 O    2.091890   10.008232    9.731609
 O    3.741396    9.708506    7.643515
 O    3.544763    9.742616   11.912922
 O    5.643956    9.487123    9.770519
 O   -1.778404    2.210879    5.846395
 O   -1.925407    3.737967    3.706380
 O   -0.158732    5.882185    3.800955
 O   -1.803489    5.611819    5.864097
 O    1.993009   -0.170574    3.654064
 O    1.935617   -0.165176    7.984218
 O    1.824635   -1.679967    5.839442
 O    4.062497   -1.968701    3.999558
 O    4.066204   -1.904892    7.697337
 O    5.824564    7.970074    4.083203
 O    5.873131    7.955346    7.628292
 O    6.014016   10.003299    5.846395
 O    9.728037    7.627244    7.984218
 O    9.617055    6.112453    5.839442
 O    7.971574    9.727139    3.695004
 O    7.956091    9.784988    7.910868
 O    9.561621    9.489108    5.815842
 O   -1.936483    3.720358    0.131690
 O   -2.025943    6.077759    1.948410
 O   -0.153937    5.775157    0.061657
 O    1.917198    3.996781   -0.167160
 O    5.891673    8.097307   -0.222861
 O    5.583955    9.553739    1.943976
 O    9.680352    7.479724    0.022017
 O    9.785429    7.621846    3.654064
 O    7.945700    9.777525    0.145061
 O    2.174525    9.847101    1.905695
 O    4.181255    5.801158   -0.154844
 O    3.496949    9.676010   -0.351501
 O    1.937338   -0.174281   11.580992
 O    5.806273    7.952950   12.041510
 O    7.971574    1.934720    3.695004
 O    3.496949    1.883590   -0.351501
 O    5.891673    0.304887   -0.222861
 O    7.945700    1.985105    0.145061
