125
Co1 La1 O3                              
La    0.077646    0.000070   10.130143
La    0.077646    7.787220   10.130143
La    0.081973    3.863883   10.196664
La    3.931702    7.516906   10.047454
La    3.959979    7.696082    6.309488
La    0.063893    3.882090    6.391918
La    3.903942    3.809210    6.351555
La    7.705790    0.003484    2.369369
La    3.813329    0.017820    2.363877
La    7.685736    3.976493    2.401395
Sr    3.953619    3.663548   10.154399
Sr    0.116695    7.750717    6.404398
Sr    3.802616    3.922970    2.398367
Co    6.042942    1.763014   12.057820
Co    1.822081    5.853422   12.128482
Co    2.080445    1.748355   12.058346
Co    5.899501    5.877099   12.069016
Co    5.895183    1.865501    8.255341
Co    1.998225    5.724774    8.268830
Co    2.002063    1.877109    8.271891
Co    5.894379    5.734418    8.238141
Co    1.946440    1.881248    4.436682
Co    1.934801    5.823676    4.441871
Co    5.849494    5.807766    4.444717
Co    5.843291    1.919097    4.450281
Co    1.888621    1.973840    0.618587
Co    1.889828    5.852653    0.581038
Co    5.744558    5.851463    0.603746
Co    5.785938    2.002363    0.594411
 O    6.002382    3.817251   12.400723
 O    2.059927    7.662322   11.673356
 O    3.851372    5.658615   12.233358
 O    0.056768    1.668220   12.309977
 O    3.866670    1.877255   12.083900
 O    0.063582    5.919358   11.913580
 O    1.673520    3.827829   12.375986
 O    5.758504    7.662663   11.766092
 O    6.125682    2.163275   10.141793
 O    2.198416    5.513806   10.152392
 O    5.693437    5.480604   10.134133
 O    1.726097    2.061896   10.157674
 O    6.071282    7.707226    8.538540
 O    2.226632    3.799734    8.119451
 O    0.052667    5.521707    8.483035
 O    3.954678    1.577442    8.477747
 O    0.054647    2.111783    8.059562
 O    3.938167    5.989363    8.031236
 O    1.817662    7.693531    8.410714
 O    5.721692    3.815146    7.914344
 O    2.267988    1.905253    6.362715
 O    6.066360    6.088673    6.326331
 O    1.718635    5.683638    6.330479
 O    5.678887    1.703292    6.302904
 O    6.126205    3.929759    4.679554
 O    2.244022    7.667571    4.612465
 O    3.905977    5.567080    4.721128
 O    0.120030    1.747116    4.584460
 O    3.803746    2.109169    4.265240
 O    7.761734    6.080460    4.122132
 O    1.645718    3.948118    4.261725
 O    5.541806    7.697376    4.165479
 O    5.694664    5.529969    2.583033
 O    2.080724    6.058801    2.600240
 O    1.822011    1.587775    2.558690
 O    6.018391    2.130471    2.614945
 O    5.788433    0.151587    0.791367
 O    1.845162    4.050555    0.721039
 O    7.593402    5.861632    0.746791
 O    3.694436    1.923416    0.677154
 O    0.099728    1.973742    0.581130
 O    3.974199    5.896982    0.500038
 O    1.863275    7.630004    0.496116
 O    5.798294    3.763903    0.449872
 O    5.045744    5.845476   14.093138
 O    2.730575    5.981959   14.104494
 C    3.878155    5.837718   13.587351
 H    5.891590    3.885378   13.371070
 H    1.094612    3.751847   13.159937
 O   -1.715868   -0.079924    8.538540
 O   -2.028646   -0.124487   11.766092
 O   -1.661468    2.163275   10.141793
 O    1.817662   -0.093619    8.410714
 O    0.052667   -2.265443    8.483035
 O    2.059927   -0.124828   11.673356
 O    0.063582   -1.867792   11.913580
 O   -1.715868    7.707226    8.538540
 O   -2.028646    7.662663   11.766092
 O   -1.661468    9.950424   10.141793
 O    1.726097    9.849046   10.157674
 O    0.056768    9.455370   12.309977
 O   -1.784768    3.817251   12.400723
 O   -2.093713    5.480604   10.134133
 O    3.954678    9.364592    8.477747
 O    2.267988    9.692403    6.362715
 O    5.678887    9.490442    6.302904
 O   -1.660944    3.929759    4.679554
 O   -2.065458    3.815146    7.914344
 O   -1.720790    6.088673    6.326331
 O    7.593402   -1.925518    0.746791
 O    7.761734   -1.706690    4.122132
 O    5.541806   -0.089774    4.165479
 O    9.867874   -1.728349    2.600240
 O    9.650425   -0.157146    0.496116
 O    9.609160    1.587775    2.558690
 O    7.886878    1.973742    0.581130
 O    7.907180    1.747116    4.584460
 O    2.080724   -1.728349    2.600240
 O    1.863275   -0.157146    0.496116
 O    2.244022   -0.119579    4.612465
 O    3.974199   -1.890168    0.500038
 O    9.632312    4.050555    0.721039
 O    9.432868    3.948118    4.261725
 O   -0.025416    6.080460    4.122132
 O   -2.108263    9.490442    6.302904
 O    0.120030    9.534266    4.584460
 O    0.054647    9.898932    8.059562
 O    5.758504   -0.124487   11.766092
 O    7.843918    1.668220   12.309977
 O    7.850731    5.919358   11.913580
 O    6.071282   -0.079924    8.538540
 O    7.841796    2.111783    8.059562
 O    7.839817    5.521707    8.483035
 O   -0.193748    5.861632    0.746791
 O    5.788433    7.938736    0.791367
 H   -1.895560    3.885378   13.371070
