120
Co1 La1 O3                              
La    7.779648    0.042477   10.240005
La    7.776567    3.933103   10.215721
La    3.820747    0.074273   10.171209
La    3.986816    7.683757    6.321904
La    0.093713    3.755286    6.339867
La    4.049325    3.837463    6.349938
La    7.705790    0.003484    2.369369
La    3.813329    0.017820    2.363877
La    7.685736    3.976493    2.401395
Sr    3.848876    3.937992   10.229012
Sr    0.133704    7.712291    6.336052
Sr    3.802616    3.922970    2.398367
Co    5.811438    1.886212   11.990034
Co    1.856868    5.860487   11.995935
Co    1.934589    1.975263   12.034190
Co    5.915857    5.935128   12.030127
Co    5.866680    1.936421    8.249595
Co    1.959922    5.822971    8.220332
Co    1.982007    1.952309    8.226048
Co    5.894937    5.857018    8.253302
Co    1.964932    1.934739    4.427056
Co    1.936311    5.801042    4.446166
Co    5.853868    5.848974    4.439970
Co    5.838849    1.907219    4.446180
Co    1.888621    1.973840    0.618587
Co    1.889828    5.852653    0.581038
Co    5.744558    5.851463    0.603746
Co    5.785938    2.002363    0.594411
 O    5.956555    3.959410   12.414041
 O    1.952760    7.780676   12.177021
 O    3.919354    5.928116   12.122853
 O    7.775465    1.976094   12.113388
 O    3.890768    1.958782   11.958852
 O    7.770464    5.870132   11.784709
 O    1.885448    3.929230   11.946824
 O    5.790788    7.779332   11.697087
 O    6.071053    2.237423   10.097158
 O    2.118231    6.133823   10.069905
 O    5.749162    5.549764   10.189590
 O    1.826535    1.647587   10.083627
 O    5.687319    0.024074    8.571640
 O    1.754720    3.905892    8.535009
 O    0.044421    5.997144    8.468533
 O    3.932169    2.090350    8.415828
 O    0.019706    1.804807    8.069639
 O    3.894793    5.671663    8.028853
 O    2.207757    7.761992    7.969018
 O    6.036551    3.868649    7.965405
 O    2.134256    2.266601    6.339581
 O    5.988926    6.102404    6.332659
 O    1.757966    5.528222    6.335502
 O    5.633179    1.697907    6.353374
 O    6.068244    3.894740    4.745219
 O    2.225364    7.771814    4.689909
 O    3.914368    5.625851    4.683401
 O    0.023632    1.754987    4.596689
 O    3.884723    2.129665    4.297027
 O    7.759381    6.043814    4.177991
 O    1.665656    3.865900    4.147260
 O    5.594658    7.751817    4.109223
 O    5.694664    5.529969    2.583033
 O    2.080724    6.058801    2.600240
 O    1.822011    1.587775    2.558690
 O    6.018391    2.130471    2.614945
 O    5.788433    0.151587    0.791367
 O    1.845162    4.050555    0.721039
 O    7.593402    5.861632    0.746791
 O    3.694436    1.923416    0.677154
 O    0.099728    1.973742    0.581130
 O    3.974199    5.896982    0.500038
 O    1.863275    7.630004    0.496116
 O    5.798294    3.763903    0.449872
 O    5.801038    6.270497   13.927319
 C    5.880832    5.560928   14.954081
 H    6.758152    3.880901   12.964633
 H    6.497698    4.641420   15.009543
 H    5.267481    5.854182   15.824146
 H    3.874160    6.741092   12.678941
 O    7.770464   -1.917018   11.784709
 O    5.790788   -0.007818   11.697087
 O    9.905380   -1.653327   10.069905
 O    7.831571   -1.790006    8.468533
 O    9.739910   -0.006474   12.177021
 O    7.806856    1.804807    8.069639
 O    9.613685    1.647587   10.083627
 O    9.541870    3.905892    8.535009
 O    9.672598    3.929230   11.946824
 O    7.831571    5.997144    8.468533
 O    2.207757   -0.025158    7.969018
 O    2.118231   -1.653327   10.069905
 O    1.952760   -0.006474   12.177021
 O    3.919354   -1.859034   12.122853
 O    5.633179    9.485058    6.353374
 O    5.687319    7.811224    8.571640
 O   -1.718905    3.894740    4.745219
 O   -1.750599    3.868649    7.965405
 O    7.593402   -1.925518    0.746791
 O    7.759381   -1.743336    4.177991
 O    5.594658   -0.035333    4.109223
 O    9.867874   -1.728349    2.600240
 O    9.650425   -0.157146    0.496116
 O    9.609160    1.587775    2.558690
 O    7.886878    1.973742    0.581130
 O    7.810782    1.754987    4.596689
 O    2.080724   -1.728349    2.600240
 O    1.863275   -0.157146    0.496116
 O    2.225364   -0.015336    4.689909
 O    3.974199   -1.890168    0.500038
 O    9.632312    4.050555    0.721039
 O    9.452806    3.865900    4.147260
 O   -0.027769    6.043814    4.177991
 O   -1.798223    6.102404    6.332659
 O   -2.153971    9.485058    6.353374
 O    0.023632    9.542137    4.596689
 O    0.019706    9.591957    8.069639
 O   -0.016686    5.870132   11.784709
 O   -0.011684    1.976094   12.113388
 O   -0.193748    5.861632    0.746791
 O    5.788433    7.938736    0.791367
 H    3.874160   -1.046058   12.678941
