118
Co1 La1 O3                              
La    0.059782    7.477099   10.263715
La    0.073791    3.764030   10.238643
La    4.042273    7.423162   10.195971
La    3.910252    7.654229    6.305064
La    0.021721    3.767310    6.314323
La    3.900373    3.782605    6.297211
La    7.705790    0.003484    2.369369
La    3.813329    0.017820    2.363877
La    7.685736    3.976493    2.401395
Sr    3.989001    3.760523   10.198074
Sr    0.053402    7.653821    6.330406
Sr    3.802616    3.922970    2.398367
Co    5.766484    1.750667   12.001756
Co    2.043237    5.500285   12.332505
Co    2.154322    1.802825   12.041237
Co    5.920498    5.572321   12.332189
Co    5.877715    1.785449    8.251864
Co    1.975639    5.685491    8.306670
Co    1.963606    1.788297    8.309258
Co    5.881272    5.688014    8.238738
Co    1.913398    1.888955    4.404781
Co    1.912346    5.793386    4.436627
Co    5.810242    5.786785    4.412534
Co    5.794720    1.889725    4.428760
Co    1.888621    1.973840    0.618587
Co    1.889828    5.852653    0.581038
Co    5.744558    5.851463    0.603746
Co    5.785938    2.002363    0.594411
 O    6.015726    3.442622   12.263646
 O    1.723786    0.193269   12.402526
 O    4.162271    5.655191   12.145688
 O    6.005679    0.004171   12.024609
 O    3.930809    1.664198   11.615518
 O    7.692773    5.608146   11.948678
 O    1.858422    3.561408   12.096708
 O    6.357241    1.865458   10.213071
 O    2.120398    5.856192   10.331507
 O    5.749269    5.561363   10.076892
 O    1.440145    1.686834   10.249269
 O    6.068496    7.564777    8.502368
 O    2.107942    3.735293    8.491505
 O    0.045082    5.464072    8.522918
 O    4.020750    1.584814    8.561039
 O    7.723975    1.984814    7.987724
 O    3.924459    5.939727    8.081533
 O    1.863348    7.643864    8.217967
 O    5.686181    3.817460    8.037456
 O    2.156772    2.029368    6.330272
 O    5.984390    5.922886    6.353449
 O    1.765773    5.444766    6.406117
 O    5.507083    1.657643    6.297976
 O    6.040682    3.779115    4.718774
 O    2.206192    7.643088    4.685589
 O    3.791257    5.541145    4.673028
 O    7.701835    1.660716    4.617389
 O    3.911411    2.172205    4.260406
 O    0.041928    6.052240    4.211812
 O    1.587303    3.898888    4.239434
 O    5.510349    7.778183    4.182787
 O    5.694664    5.529969    2.583033
 O    2.080724    6.058801    2.600240
 O    1.822011    1.587775    2.558690
 O    6.018391    2.130471    2.614945
 O    5.788433    0.151587    0.791367
 O    1.845162    4.050555    0.721039
 O    7.593402    5.861632    0.746791
 O    3.694436    1.923416    0.677154
 O    0.099728    1.973742    0.581130
 O    3.974199    5.896982    0.500038
 O    1.863275    7.630004    0.496116
 O    5.798294    3.763903    0.449872
 O    1.957035    5.815820   14.099389
 C    6.030087    5.650753   14.315646
 H    7.030453    5.255251   14.511079
 H    5.910277    6.717032   14.523127
 H    5.198132    5.024455   14.644557
 H    1.905797    6.783691   14.243462
 O   -2.037881    5.561363   10.076892
 O   -1.718654    7.564777    8.502368
 O   -0.094377    5.608146   11.948678
 O   -1.429909    9.652609   10.213071
 O   -1.781471    7.791320   12.024609
 O    1.440145    9.473984   10.249269
 O    1.723786    7.980419   12.402526
 O   -0.063175    1.984814    7.987724
 O   -1.429909    1.865458   10.213071
 O   -1.771424    3.442622   12.263646
 O    4.020750    9.371964    8.561039
 O    3.930809    9.451348   11.615518
 O    6.005679    7.791320   12.024609
 O    2.156772    9.816518    6.330272
 O    5.507083    9.444794    6.297976
 O   -0.085315    1.660716    4.617389
 O   -1.746468    3.779115    4.718774
 O   -2.100969    3.817460    8.037456
 O   -1.802760    5.922886    6.353449
 O    7.593402   -1.925518    0.746791
 O    5.510349   -0.008967    4.182787
 O    9.867874   -1.728349    2.600240
 O    9.650425   -0.157146    0.496116
 O    7.829078   -1.734910    4.211812
 O    9.609160    1.587775    2.558690
 O    7.886878    1.973742    0.581130
 O    2.080724   -1.728349    2.600240
 O    1.863275   -0.157146    0.496116
 O    2.206192   -0.144062    4.685589
 O    3.974199   -1.890168    0.500038
 O    9.632312    4.050555    0.721039
 O    9.374453    3.898888    4.239434
 O    7.829078    6.052240    4.211812
 O   -0.085315    9.447866    4.617389
 O   -0.063175    9.771964    7.987724
 O   -2.280066    9.444794    6.297976
 O    6.068496   -0.222373    8.502368
 O    1.863348   -0.143286    8.217967
 O    7.832232    5.464072    8.522918
 O   -0.193748    5.861632    0.746791
 O    5.788433    7.938736    0.791367
