110
O vacancy @ La0.75Sr0.25CoO3 surface
La    7.726293    0.109633   10.224889
La    7.756461    3.878018   10.207827
La    3.905539    0.162600   10.232486
La    3.991185    7.656775    6.337536
La    0.105837    3.797641    6.369721
La    4.014174    3.823672    6.360678
La    7.705790    0.003484    2.369369
La    3.813329    0.017820    2.363877
La    7.685736    3.976493    2.401395
Sr    3.875851    3.878018   10.226711
Sr    0.162920    7.714448    6.387926
Sr    3.802616    3.922970    2.398367
Co    5.794649    2.028535   12.222444
Co    1.830391    5.863987   11.990408
Co    1.937953    2.003946   12.130902
Co    5.962353    5.858615   12.076600
Co    5.870557    1.943563    8.268298
Co    2.016552    5.829274    8.293812
Co    1.988197    1.939693    8.268340
Co    5.881068    5.847515    8.272301
Co    1.956471    1.922992    4.438392
Co    1.937061    5.813094    4.461215
Co    5.860974    5.826950    4.436034
Co    5.857455    1.910041    4.437183
Co    1.888621    1.973840    0.618587
Co    1.889828    5.852653    0.581038
Co    5.744558    5.851463    0.603746
Co    5.785938    2.002363    0.594411
 O    5.748768    4.115909   12.314518
 O    2.058316    7.561207   12.264544
 O    0.123366    1.984887   12.198705
 O    3.752361    1.960687   12.100332
 O    0.006042    5.884914   11.579907
 O    1.953242    4.089474   11.977732
 O    5.716826    7.669068   12.042126
 O    6.028655    2.092858   10.196158
 O    2.459533    6.044036   10.151808
 O    5.558410    5.726008   10.108465
 O    1.842748    1.651727   10.160192
 O    5.697130    0.059149    8.509454
 O    1.752700    3.881510    8.551916
 O    0.100402    6.021228    8.611168
 O    3.944955    2.091376    8.412042
 O    0.021065    1.805920    8.150388
 O    3.889706    5.652860    7.913266
 O    2.236849    7.779313    8.052386
 O    6.077672    3.850839    8.073939
 O    2.111634    2.267828    6.371542
 O    6.068955    6.068272    6.398250
 O    1.705891    5.561413    6.378525
 O    5.690986    1.758924    6.296875
 O    6.104952    3.962546    4.733531
 O    2.220070    7.708934    4.721147
 O    3.989168    5.598492    4.741877
 O    0.100054    1.747297    4.586820
 O    3.810287    2.109077    4.303362
 O    7.686557    6.088788    4.166826
 O    1.650345    3.924686    4.175025
 O    5.537693    7.688673    4.162012
 O    5.694664    5.529969    2.583033
 O    2.080724    6.058801    2.600240
 O    1.822011    1.587775    2.558690
 O    6.018391    2.130471    2.614945
 O    5.788433    0.151587    0.791367
 O    1.845162    4.050555    0.721039
 O    7.593402    5.861632    0.746791
 O    3.694436    1.923416    0.677154
 O    0.099728    1.973742    0.581130
 O    3.974199    5.896982    0.500038
 O    1.863275    7.630004    0.496116
 O    5.798294    3.763903    0.449872
 O    5.716826   -0.118082   12.042126
 O    7.887552   -1.765922    8.611168
 O    7.793192   -1.902236   11.579907
 O    7.808215    1.805920    8.150388
 O    7.910516    1.984887   12.198705
 O    9.629898    1.651727   10.160192
 O    9.539850    3.881510    8.551916
 O    9.740392    4.089474   11.977732
 O    7.887552    6.021228    8.611168
 O    7.793192    5.884914   11.579907
 O    2.236849   -0.007837    8.052386
 O    2.058316   -0.225943   12.264544
 O    2.459533   -1.743114   10.151808
 O    5.558410   -2.061142   10.108465
 O    5.690986    9.546074    6.296875
 O    5.697130    7.846299    8.509454
 O   -1.682198    3.962546    4.733531
 O   -1.709478    3.850839    8.073939
 O    7.593402   -1.925518    0.746791
 O    7.686557   -1.698362    4.166826
 O    5.537693   -0.098476    4.162012
 O    9.867874   -1.728349    2.600240
 O    9.650425   -0.157146    0.496116
 O    9.609160    1.587775    2.558690
 O    7.886878    1.973742    0.581130
 O    7.887203    1.747297    4.586820
 O    2.080724   -1.728349    2.600240
 O    1.863275   -0.157146    0.496116
 O    2.220070   -0.078216    4.721147
 O    3.974199   -1.890168    0.500038
 O    9.632312    4.050555    0.721039
 O    9.437494    3.924686    4.175025
 O   -0.100593    6.088788    4.166826
 O   -1.718195    6.068272    6.398250
 O   -2.096164    9.546074    6.296875
 O    0.100054    9.534447    4.586820
 O    0.021065    9.593070    8.150388
 O   -0.193748    5.861632    0.746791
 O    5.788433    7.938736    0.791367
