113
La0.75Sr0.5CoO3 surface
La    7.735102    0.039575   10.279209
La    7.760291    3.969889   10.295718
La    3.847757    0.068874   10.284391
La    4.005940    7.669446    6.355673
La    0.108116    3.794142    6.369913
La    4.045331    3.850854    6.376702
La    7.705790    0.003484    2.369369
La    3.813329    0.017820    2.363877
La    7.685736    3.976493    2.401395
Sr    3.847826    3.937372   10.266242
Sr    0.142154    7.704356    6.357954
Sr    3.802616    3.922970    2.398367
Co    5.820489    2.016921   12.077387
Co    1.933494    5.881792   12.093704
Co    1.927593    1.979646   12.064449
Co    5.788849    5.876397   12.058854
Co    5.879603    1.937876    8.255189
Co    1.964822    5.840879    8.264787
Co    1.985197    1.934327    8.252235
Co    5.880987    5.837667    8.251779
Co    1.969199    1.930272    4.436568
Co    1.954969    5.819553    4.438968
Co    5.853153    5.830378    4.435731
Co    5.856274    1.916071    4.438492
Co    1.888621    1.973840    0.618587
Co    1.889828    5.852653    0.581038
Co    5.744558    5.851463    0.603746
Co    5.785938    2.002363    0.594411
 O    5.838748    3.768699   12.246264
 O    1.913422    7.655090   12.214574
 O    4.025170    5.911666   12.164934
 O    0.144349    1.985051   12.136548
 O    3.738976    1.943410   11.981156
 O    7.629324    5.882174   11.942516
 O    1.890451    4.074183   11.953302
 O    5.825414    0.169857   11.883638
 O    6.143597    2.170861   10.106153
 O    2.125176    6.143435   10.104600
 O    5.761852    5.548039   10.102401
 O    1.825732    1.618312   10.107840
 O    5.672139    0.019800    8.583780
 O    1.739344    3.914427    8.524862
 O    0.052793    6.005516    8.476485
 O    3.972336    2.090650    8.419374
 O    7.783367    1.799990    8.037762
 O    3.894852    5.669519    8.013390
 O    2.216407    7.757724    7.985018
 O    6.041934    3.861750    7.933456
 O    2.143224    2.286952    6.354994
 O    6.000221    6.151243    6.345385
 O    1.790572    5.564301    6.300012
 O    5.670778    1.721902    6.281488
 O    6.100712    3.927754    4.727666
 O    2.237500    7.749114    4.672956
 O    3.966882    5.611411    4.685917
 O    0.113235    1.762572    4.585193
 O    3.812553    2.112620    4.281295
 O    7.720162    6.053998    4.174618
 O    1.669911    3.893969    4.156644
 O    5.577237    7.720561    4.116713
 O    5.694664    5.529969    2.583033
 O    2.080724    6.058801    2.600240
 O    1.822011    1.587775    2.558690
 O    6.018391    2.130471    2.614945
 O    5.788433    0.151587    0.791367
 O    1.845162    4.050555    0.721039
 O    7.593402    5.861632    0.746791
 O    3.694436    1.923416    0.677154
 O    0.099728    1.973742    0.581130
 O    3.974199    5.896982    0.500038
 O    1.863275    7.630004    0.496116
 O    5.798294    3.763903    0.449872
 O    7.629324   -1.904975   11.942516
 O    7.839943   -1.781634    8.476485
 O    9.700572   -0.132060   12.214574
 O    9.912327   -1.643715   10.104600
 O    7.931499    1.985051   12.136548
 O    9.612883    1.618312   10.107840
 O    9.526494    3.914427    8.524862
 O    9.677601    4.074183   11.953302
 O    7.839943    6.005516    8.476485
 O    2.216407   -0.029426    7.985018
 O    1.913422   -0.132060   12.214574
 O    2.125176   -1.643715   10.104600
 O    4.025170   -1.875484   12.164934
 O    5.670778    9.509051    6.281488
 O    5.672139    7.806950    8.583780
 O   -0.003783    1.799990    8.037762
 O   -1.686438    3.927754    4.727666
 O   -1.745216    3.861750    7.933456
 O    7.593402   -1.925518    0.746791
 O    7.720162   -1.733151    4.174618
 O    5.577237   -0.066589    4.116713
 O    9.867874   -1.728349    2.600240
 O    9.650425   -0.157146    0.496116
 O    9.609160    1.587775    2.558690
 O    7.886878    1.973742    0.581130
 O    7.900384    1.762572    4.585193
 O    2.080724   -1.728349    2.600240
 O    1.863275   -0.157146    0.496116
 O    2.237500   -0.038036    4.672956
 O    3.974199   -1.890168    0.500038
 O    9.632312    4.050555    0.721039
 O    9.457061    3.893969    4.156644
 O   -0.066988    6.053998    4.174618
 O   -1.786929    6.151243    6.345385
 O   -2.116372    9.509051    6.281488
 O   -0.003783    9.587140    8.037762
 O    0.113235    9.549722    4.585193
 O   -0.157826    5.882174   11.942516
 O    5.825414    7.957007   11.883638
 O   -0.193748    5.861632    0.746791
 O    5.788433    7.938736    0.791367
