119
 Co1 La1 O3                             
La    3.969822    3.880502   10.032773
La    7.724226    0.198486   10.208886
La    0.016597    0.050868    6.398953
La    7.763874    3.967755    6.396244
La    7.723503    0.098342    2.447077
La    3.899777    3.900558    2.359167
Sr    7.755512    4.028122   10.196993
Sr    3.927192    7.770831   10.277652
Sr    3.828827    3.811688    6.376592
Sr    3.869899    7.681490    6.526787
Sr    3.891148    7.766994    2.440182
Sr    0.009445    3.977103    2.423290
Co    5.923525    5.936093   12.263830
Co    1.864962    6.121385   12.072334
Co    5.709636    1.965249   12.226633
Co    1.988164    1.971436   12.093065
Co    1.932538    1.981974    8.313566
Co    5.807562    1.961091    8.289608
Co    1.921337    5.877162    8.404305
Co    5.837981    5.871079    8.373599
Co    5.804021    5.849179    4.492887
Co    1.964239    5.853920    4.480454
Co    5.791816    1.977216    4.463521
Co    1.934060    1.948414    4.450513
Co    1.957320    1.955955    0.625809
Co    5.841898    1.955559    0.589507
Co    1.960518    5.919425    0.613787
Co    5.844098    5.853743    0.609597
 O    0.384169    2.364665   12.503866
 O    5.997881    3.898577   12.741498
 O    3.704984    6.024477   12.656326
 O    1.854953    0.153773   11.806118
 O    5.864235    0.188334   12.315024
 O    0.104335    5.872060   11.985470
 O    3.751086    2.255221   12.076061
 O    6.045575    2.130396   10.332727
 O    2.232244    5.483490   10.331178
 O    5.543276    5.705890   10.311936
 O    1.781655    2.319467   10.187047
 O    3.851580    2.082714    8.479552
 O    7.771716    6.088856    8.703629
 O    5.743574    7.765239    8.489180
 O    1.758286    3.916137    8.055137
 O    1.973935    0.007843    8.689263
 O    3.873522    5.650179    8.143746
 O    5.973254    3.965566    8.223083
 O    0.004884    1.822173    8.132943
 O    2.102801    1.692872    6.433027
 O    6.183845    5.987881    6.503609
 O    1.615761    6.018003    6.531933
 O    5.636043    1.838907    6.287946
 O    7.740619    1.945294    4.760499
 O    5.845819    4.016365    4.655943
 O    3.778622    5.846009    4.738821
 O    1.871361    0.107325    4.339688
 O    1.881197    3.788678    4.602007
 O    5.878165    7.695660    4.344723
 O    0.085465    5.883932    4.308662
 O    3.881531    2.056966    4.094336
 O    5.543565    5.651074    2.597020
 O    2.188568    5.695309    2.553016
 O    1.591187    1.954746    2.523826
 O    6.108463    2.099459    2.570380
 O    4.037344    1.984022    0.748200
 O    0.152578    5.926707    0.746403
 O    5.856892    7.656845    0.707251
 O    1.983700    3.702651    0.566679
 O    1.915570    0.192457    0.614603
 O    3.708564    5.860600    0.421521
 O    5.799526    4.080375    0.500731
 O    7.572265    1.937153    0.393413
 H    6.929362    3.799342   13.048980
 H    3.768430    6.701106   13.358934
 O    7.771716   -1.689654    8.703629
 O    5.743574   -0.013271    8.489180
 O    7.882845   -1.906450   11.985470
 O    7.783394    1.822173    8.132943
 O    9.560165    2.319467   10.187047
 O    9.752445    0.007843    8.689263
 O    9.633463    0.153773   11.806118
 O   -1.900345   -0.082850    4.344723
 O   -1.594666   -1.790629    6.503609
 O   -0.006794   -1.689654    8.703629
 O   -0.037891    1.945294    4.760499
 O   -2.142467    1.838907    6.287946
 O    0.085465   -1.894578    4.308662
 O    1.615761   -1.760508    6.531933
 O    9.659707    3.788678    4.602007
 O    9.536797    3.916137    8.055137
 O    7.863976    5.883932    4.308662
 O    9.394271    6.018003    6.531933
 O    5.856892   -0.121665    0.707251
 O    5.878165   -0.082850    4.344723
 O    7.931088   -1.851803    0.746403
 O    7.863976   -1.894578    4.308662
 O    9.369698    1.954746    2.523826
 O    9.694079    0.192457    0.614603
 O    9.649871    0.107325    4.339688
 O    8.162680    2.364665   12.503866
 O   10.010755    5.483490   10.331178
 O    7.882845    5.872060   11.985470
 O    1.973935    7.786353    8.689263
 O    1.854953    7.932283   11.806118
 O    3.851580    9.861224    8.479552
 O    3.751086   10.033731   12.076061
 O    5.864235    7.966844   12.315024
 O    1.871361    7.885836    4.339688
 O    2.102801    9.471382    6.433027
 O    5.636043    9.617417    6.287946
 O    1.915570    7.970967    0.614603
 O    4.037344    9.762532    0.748200
 O    3.881531    9.835476    4.094336
 O   -1.670047    2.099459    2.570380
 O   -0.206245    1.937153    0.393413
 O   -1.978984    4.080375    0.500731
 O   -1.932691    4.016365    4.655943
 O   -2.234945    5.651074    2.597020
 O   -0.006794    6.088856    8.703629
 O    7.931088    5.926707    0.746403
