75
Co1 La1 Sr1 O3
La	 3.87854 3.82880 9.87190
La	 7.73779 0.14525 10.21722
La	 0.02431 0.05063 6.44519
La	 7.77458 3.96215 6.43478
La	 7.72350 0.09834 2.44708
La	 3.89978 3.90056 2.35917
Sr	 7.71806 3.96271 10.24829
Sr	 3.90109 7.61920 10.08213
Sr	 3.87649 3.79283 6.30307
Sr	 3.89578 7.67806 6.41064
Sr	 3.89115 7.76699 2.44018
Sr	 0.00945 3.97710 2.42329
Co	 5.96440 5.89413 12.17282
Co	 1.83187 6.02452 12.19130
Co	 5.61537 1.88990 12.05608
Co	 2.01541 1.83306 12.01103
Co	 1.93768 1.93023 8.27219
Co	 5.82235 1.93505 8.27222
Co	 1.91367 5.80780 8.36847
Co	 5.84005 5.82693 8.33309
Co	 5.83896 5.84118 4.48646
Co	 1.95857 5.85069 4.47684
Co	 5.81773 1.96389 4.46273
Co	 1.93167 1.94767 4.43410
Co	 1.95732 1.95596 0.62581
Co	 5.84190 1.95556 0.58951
Co	 1.96052 5.91943 0.61379
Co	 5.84410 5.85374 0.60960
O	 0.35923 1.99929 12.35291
O	 6.10439 3.68821 12.65642
O	 4.15445 5.71344 12.94892
O	 2.09728 0.04023 11.81357
O	 5.71491 0.11819 12.05124
O	 7.71367 5.94450 12.09699
O	 3.72456 2.35293 12.00489
O	 6.06435 2.12342 10.17632
O	 2.22412 5.47711 10.34932
O	 5.53139 5.57444 10.30421
O	 1.72780 2.26058 10.11615
O	 3.87296 1.81278 8.53696
O	 7.77366 5.82058 8.68589
O	 6.02729 0.00332 8.50029
O	 2.04209 3.84519 8.03209
O	 1.73219 0.01182 8.57725
O	 3.87399 5.84618 8.12937
O	 5.76702 3.86905 8.06851
O	 0.00934 2.02311 8.00977
O	 2.15253 1.68008 6.46650
O	 6.18893 5.99283 6.43825
O	 1.58219 5.97526 6.47910
O	 5.63821 1.77178 6.32355
O	 7.76048 1.83291 4.74470
O	 5.95862 4.00995 4.63131
O	 3.75304 5.75267 4.69007
O	 1.99819 0.10582 4.35996
O	 1.79748 3.78423 4.60273
O	 5.79601 7.67504 4.29984
O	 0.12286 5.97570 4.23234
O	 3.88821 2.13541 4.12450
O	 5.54356 5.65107 2.59702
O	 2.18857 5.69531 2.55302
O	 1.59119 1.95475 2.52383
O	 6.10846 2.09946 2.57038
O	 4.03734 1.98402 0.74820
O	 0.15258 5.92671 0.74640
O	 5.85689 7.65685 0.70725
O	 1.98370 3.70265 0.56668
O	 1.91557 0.19246 0.61460
O	 3.70856 5.86060 0.42152
O	 5.79953 4.08038 0.50073
O	 7.57227 1.93715 0.39341
O	 2.32078 4.76527 13.72418
C	 3.57616 4.89945 13.75818
H	 6.97078 3.56506 13.09927
H	 4.17842 4.32996 14.48252
