121
 Co1 La1 O3                             
La    3.869104    3.694304   10.063207
La    7.775811    0.240762   10.218476
La    0.031534    0.022913    6.453135
La    7.770787    3.935893    6.434028
La    7.723503    0.098342    2.447077
La    3.899777    3.900558    2.359167
Sr    7.765698    3.878987   10.205786
Sr    3.869555    7.681452   10.224473
Sr    3.859070    3.781832    6.329356
Sr    3.883622    7.683930    6.390162
Sr    3.891148    7.766994    2.440182
Sr    0.009445    3.977103    2.423290
Co    6.011068    5.922069   12.086800
Co    1.714824    5.878677   12.138971
Co    5.827736    1.876981   12.152403
Co    1.992363    1.890026   12.223478
Co    1.945180    1.909061    8.298042
Co    5.793373    1.908421    8.264141
Co    1.981373    5.798326    8.338828
Co    5.837912    5.797035    8.352077
Co    5.800375    5.830646    4.497530
Co    1.927163    5.835015    4.439732
Co    5.815012    1.948414    4.472744
Co    1.930979    1.939040    4.446698
Co    1.957320    1.955955    0.625809
Co    5.841898    1.955559    0.589507
Co    1.960518    5.919425    0.613787
Co    5.844098    5.853743    0.609597
 O    7.603763    1.917652   12.296866
 O    5.718300    3.811685   12.702929
 O    1.919082    7.653172   12.169809
 O    2.380227    3.896131   12.634170
 O    5.856017    7.695064   11.916864
 O    7.767213    5.376008   12.443199
 O    4.050575    1.874375   12.054514
 O    5.991218    2.103404   10.160693
 O    2.270398    5.511783   10.391571
 O    5.584245    5.478513   10.347914
 O    1.755906    2.066438   10.228141
 O    3.812797    1.766036    8.559347
 O    0.044045    5.693487    8.542159
 O    6.067321    7.689494    8.556599
 O    2.101333    3.771669    8.169832
 O    1.706847    0.030007    8.503303
 O    3.868523    5.912098    8.213709
 O    5.677555    3.904611    8.133735
 O    0.056249    2.045505    8.091692
 O    2.149092    1.703874    6.445767
 O    6.164726    5.989394    6.438469
 O    1.664609    5.931257    6.335101
 O    5.651245    1.710276    6.419144
 O    7.757067    1.855647    4.817792
 O    5.944184    3.784801    4.689186
 O    3.964778    5.752379    4.680745
 O    1.936486    0.024669    4.338217
 O    1.802578    3.846219    4.585105
 O    5.789247    0.110419    4.274742
 O    7.676443    5.955252    4.230350
 O    3.882578    2.107802    4.118587
 O    5.543565    5.651074    2.597020
 O    2.188568    5.695309    2.553016
 O    1.591187    1.954746    2.523826
 O    6.108463    2.099459    2.570380
 O    4.037344    1.984022    0.748200
 O    0.152578    5.926707    0.746403
 O    5.856892    7.656845    0.707251
 O    1.983700    3.702651    0.566679
 O    1.915570    0.192457    0.614603
 O    3.708564    5.860600    0.421521
 O    5.799526    4.080375    0.500731
 O    7.572265    1.937153    0.393413
 O    5.396752    6.270424   14.294114
 C    4.980492    5.467480   15.118619
 H    6.648556    3.898838   13.025928
 H    4.690051    5.814335   16.132490
 H    3.263943    3.828002   13.048875
 H    4.889020    4.389646   14.871379
 O    6.067321   -0.089016    8.556599
 O    5.856017   -0.083447   11.916864
 O    7.822556   -2.085023    8.542159
 O    9.697592   -0.125338   12.169809
 O    7.834759    2.045505    8.091692
 O    9.534416    2.066438   10.228141
 O    9.485357    0.030007    8.503303
 O   -0.102067   -1.823258    4.230350
 O   -1.613784   -1.789116    6.438469
 O   -1.711189   -0.089016    8.556599
 O   -0.021443    1.855647    4.817792
 O   -2.127265    1.710276    6.419144
 O    1.664609   -1.847253    6.335101
 O    9.581088    3.846219    4.585105
 O    9.879843    3.771669    8.169832
 O    9.443119    5.931257    6.335101
 O    7.822556    5.693487    8.542159
 O    5.856892   -0.121665    0.707251
 O    7.676443   -1.823258    4.230350
 O    7.931088   -1.851803    0.746403
 O    9.369698    1.954746    2.523826
 O    9.694079    0.192457    0.614603
 O    9.714996    0.024669    4.338217
 O   10.048908    5.511783   10.391571
 O    1.706847    7.808517    8.503303
 O    3.812797    9.544546    8.559347
 O    4.050575    9.652885   12.054514
 O    1.936486    7.803179    4.338217
 O    2.149092    9.482384    6.445767
 O    5.789247    7.888929    4.274742
 O    5.651245    9.488787    6.419144
 O    1.915570    7.970967    0.614603
 O    4.037344    9.762532    0.748200
 O    3.882578    9.886312    4.118587
 O   -1.670047    2.099459    2.570380
 O   -0.206245    1.937153    0.393413
 O   -1.978984    4.080375    0.500731
 O   -1.834326    3.784801    4.689186
 O   -2.234945    5.651074    2.597020
 O   -0.102067    5.955252    4.230350
 O   -0.011297    5.376008   12.443199
 O   -0.174747    1.917652   12.296866
 O    1.919082   -0.125338   12.169809
 O    7.931088    5.926707    0.746403
