127
 Co1 La1 O3                             
La    3.909835    3.980294   10.434467
La    7.772906    0.097776   10.356604
La    0.000259    0.000922    6.496860
La    0.066693    3.877818    6.483175
La    7.723503    0.098342    2.447077
La    3.899777    3.900558    2.359167
Sr    0.042876    4.011637   10.369220
Sr    3.915802    0.012019   10.348598
Sr    3.932358    3.782947    6.476674
Sr    3.877111    7.698767    6.495095
Sr    3.891148    7.766994    2.440182
Sr    0.009445    3.977103    2.423290
Co    5.875669    5.888291   12.320310
Co    1.951971    5.939819   12.375934
Co    5.852271    1.986545   12.178581
Co    2.001954    1.980273   12.136006
Co    2.020530    1.952130    8.372176
Co    5.867529    1.980054    8.348251
Co    1.975510    5.844034    8.385283
Co    5.828242    5.845495    8.363602
Co    5.811595    5.829963    4.494122
Co    1.945971    5.830614    4.490131
Co    5.849825    1.960564    4.495999
Co    1.973076    1.942911    4.478028
Co    1.957320    1.955955    0.625809
Co    5.841898    1.955559    0.589507
Co    1.960518    5.919425    0.613787
Co    5.844098    5.853743    0.609597
 O    7.562347    1.974963   12.408461
 O    5.796443    4.091709   12.205720
 O    3.715256    5.884448   12.253647
 O    1.933974    0.241367   12.179767
 O    2.004063    3.714025   12.259364
 O    0.169716    5.960935   11.962206
 O    4.059716    2.015423   12.008348
 O    6.213931    2.080553   10.175402
 O    2.194535    5.764497   10.205954
 O    5.648904    5.725808   10.148866
 O    1.624379    1.998980   10.272872
 O    3.980335    2.195954    8.714396
 O    0.098421    6.109185    8.556606
 O    5.805574    0.104302    8.481556
 O    1.767367    3.914973    8.282922
 O    2.074297    0.034230    8.405510
 O    3.805697    5.664038    8.100268
 O    6.057813    3.830667    8.122745
 O    7.764460    1.838505    7.998727
 O    2.181192    1.893537    6.384724
 O    6.092310    5.953006    6.472851
 O    1.593127    5.901719    6.454853
 O    5.572474    1.738577    6.435564
 O    0.139607    1.888589    4.755786
 O    5.906168    3.748773    4.674331
 O    4.030689    5.791440    4.737946
 O    1.946352    7.639640    4.407746
 O    1.889229    4.026851    4.554265
 O    5.857435    0.149481    4.319976
 O    7.626914    5.921224    4.268326
 O    3.748094    2.045367    4.142232
 O    5.543565    5.651074    2.597020
 O    2.188568    5.695309    2.553016
 O    1.591187    1.954746    2.523826
 O    6.108463    2.099459    2.570380
 O    4.037344    1.984022    0.748200
 O    0.152578    5.926707    0.746403
 O    5.856892    7.656845    0.707251
 O    1.983700    3.702651    0.566679
 O    1.915570    0.192457    0.614603
 O    3.708564    5.860600    0.421521
 O    5.799526    4.080375    0.500731
 O    7.572265    1.937153    0.393413
 O    1.769501    5.846756   14.179986
 O    5.875223    7.695196   12.041708
 C    6.014154    6.024779   14.315230
 H    7.089081    6.175181   14.456578
 H    5.368737    6.875298   14.541267
 H    5.622010    5.057022   14.633234
 H    1.839068    4.886393   14.369186
 O    5.875223   -0.083314   12.041708
 O    7.876931   -1.669325    8.556606
 O    7.948226   -1.817575   11.962206
 O    9.852808    0.034230    8.405510
 O    9.402889    1.998980   10.272872
 O    9.712484    0.241367   12.179767
 O   -0.151596   -1.857286    4.268326
 O   -1.686200   -1.825504    6.472851
 O   -1.921075    0.149481    4.319976
 O   -0.014050    1.838505    7.998727
 O   -2.206036    1.738577    6.435564
 O   -1.972936    0.104302    8.481556
 O    1.946352   -0.138870    4.407746
 O    1.593127   -1.876791    6.454853
 O    0.098421   -1.669325    8.556606
 O   -1.872342    3.748773    4.674331
 O   -1.720697    3.830667    8.122745
 O   -1.686200    5.953006    6.472851
 O    5.856892   -0.121665    0.707251
 O    7.626914   -1.857286    4.268326
 O    7.931088   -1.851803    0.746403
 O    9.724862   -0.138870    4.407746
 O    9.369698    1.954746    2.523826
 O    9.694079    0.192457    0.614603
 O   -1.564579    2.080553   10.175402
 O   -0.216163    1.974963   12.408461
 O   -1.982067    4.091709   12.205720
 O   -2.129606    5.725808   10.148866
 O    2.194535   -2.014013   10.205954
 O    3.715256   -1.894062   12.253647
 O    5.648904   -2.052702   10.148866
 O    2.074297    7.812740    8.405510
 O    2.181192    9.672047    6.384724
 O    5.857435    7.927990    4.319976
 O    5.572474    9.517087    6.435564
 O    5.805574    7.882812    8.481556
 O    1.915570    7.970967    0.614603
 O    4.037344    9.762532    0.748200
 O    3.748094    9.823877    4.142232
 O   -1.670047    2.099459    2.570380
 O   -0.206245    1.937153    0.393413
 O   -1.978984    4.080375    0.500731
 O   -2.234945    5.651074    2.597020
 O   -0.151596    5.921224    4.268326
 O    7.948226    5.960935   11.962206
 O    1.933974    8.019877   12.179767
 O    7.876931    6.109185    8.556606
 O    7.918117    1.888589    4.755786
 O    7.931088    5.926707    0.746403
