123
 Co1 La1 O3                             
La    3.839175    3.766107   10.075314
La    0.012229    0.081332   10.113405
La    0.041162    7.773379    6.297594
La    0.011965    3.877563    6.336167
La    7.723503    0.098342    2.447077
La    3.899777    3.900558    2.359167
Sr    0.027759    3.883664   10.216284
Sr    3.943624    7.718102   10.116168
Sr    3.888336    3.788703    6.291849
Sr    3.887232    7.706339    6.256408
Sr    3.891148    7.766994    2.440182
Sr    0.009445    3.977103    2.423290
Co    6.002262    5.817608   12.214674
Co    1.861694    5.865357   11.941533
Co    5.781522    1.755260   12.026004
Co    2.013961    1.747179   12.057539
Co    1.975031    1.908697    8.198655
Co    5.844637    1.919465    8.235102
Co    1.959932    5.812232    8.236598
Co    5.804379    5.790654    8.262670
Co    5.842577    5.831816    4.427904
Co    1.970659    5.818270    4.415274
Co    5.820986    1.962944    4.436535
Co    1.952089    1.950323    4.394202
Co    1.957320    1.955955    0.625809
Co    5.841898    1.955559    0.589507
Co    1.960518    5.919425    0.613787
Co    5.844098    5.853743    0.609597
 O    0.276711    1.743834   12.279046
 O    6.149830    3.770251   12.452384
 O    2.325384    7.520929   12.175406
 O    2.193001    4.202586   12.158896
 O    5.815632    7.764844   11.935719
 O    0.077991    5.982151   11.678761
 O    3.846450    2.047740   11.908553
 O    6.123981    2.085333   10.139593
 O    2.378481    5.774489   10.088130
 O    5.472716    5.524414   10.404665
 O    1.740377    1.915749   10.111553
 O    3.957324    1.875986    8.504530
 O    7.731319    5.768017    8.524087
 O    6.001628    0.024942    8.438774
 O    2.033578    3.892477    8.225882
 O    1.788379    7.715202    8.258849
 O    3.962531    5.863385    8.042702
 O    5.782410    3.799194    8.086584
 O    7.759260    1.968722    7.932904
 O    2.188498    1.860215    6.306032
 O    6.173008    5.966195    6.299461
 O    1.602116    5.828639    6.357381
 O    5.652256    1.753408    6.283704
 O    0.042542    1.770054    4.669677
 O    6.053585    3.931675    4.600455
 O    3.887028    5.656642    4.677682
 O    2.038939    7.775050    4.375534
 O    1.729369    3.876416    4.511211
 O    5.763896    7.738258    4.234147
 O    0.010411    6.068716    4.151006
 O    3.851344    2.171062    4.102015
 O    5.543565    5.651074    2.597020
 O    2.188568    5.695309    2.553016
 O    1.591187    1.954746    2.523826
 O    6.108463    2.099459    2.570380
 O    4.037344    1.984022    0.748200
 O    0.152578    5.926707    0.746403
 O    5.856892    7.656845    0.707251
 O    1.983700    3.702651    0.566679
 O    1.915570    0.192457    0.614603
 O    3.708564    5.860600    0.421521
 O    5.799526    4.080375    0.500731
 O    7.572265    1.937153    0.393413
 O    5.727109    6.137260   13.961818
 C    5.536614    5.152083   14.951205
 H    6.863531    3.694586   13.117871
 H    6.484363    4.647890   15.224011
 H    5.172865    5.670717   15.856466
 H    4.794909    4.387423   14.665068
 O   -0.047191   -2.010493    8.524087
 O   -1.962878   -0.013666   11.935719
 O   -0.019250    1.968722    7.932904
 O   -1.654530    2.085333   10.139593
 O   -1.776882    0.024942    8.438774
 O    1.788379   -0.063308    8.258849
 O    0.077991   -1.796360   11.678761
 O   -1.605502    5.966195    6.299461
 O   -0.019250    9.747232    7.932904
 O   -2.126254    9.531919    6.283704
 O   -1.776882    7.803452    8.438774
 O    0.042542    9.548564    4.669677
 O    2.188498    9.638725    6.306032
 O   -1.724926    3.931675    4.600455
 O   -1.996100    3.799194    8.086584
 O   -0.047191    5.768017    8.524087
 O    5.856892   -0.121665    0.707251
 O    5.763896   -0.040252    4.234147
 O    7.931088   -1.851803    0.746403
 O    9.817449   -0.003460    4.375534
 O    7.788921   -1.709794    4.151006
 O    9.369698    1.954746    2.523826
 O    9.694079    0.192457    0.614603
 O    7.821053    1.770054    4.669677
 O   -1.628680    3.770251   12.452384
 O   -2.305794    5.524414   10.404665
 O    1.740377    9.694260   10.111553
 O    3.957324    9.654496    8.504530
 O    3.846450    9.826250   11.908553
 O    6.001628    7.803452    8.438774
 O    5.652256    9.531919    6.283704
 O    1.915570    7.970967    0.614603
 O    4.037344    9.762532    0.748200
 O    3.851344    9.949573    4.102015
 O   -1.670047    2.099459    2.570380
 O   -0.206245    1.937153    0.393413
 O   -1.978984    4.080375    0.500731
 O   -2.234945    5.651074    2.597020
 O    7.856501    5.982151   11.678761
 O    5.815632   -0.013666   11.935719
 O    8.055221    1.743834   12.279046
 O    2.325384   -0.257581   12.175406
 O    7.788921    6.068716    4.151006
 O    2.038939   -0.003460    4.375534
 O    7.931088    5.926707    0.746403
 H   -0.914979    3.694586   13.117871
