116
O vacancy @ La0.5Sr0.5CoO3 surface
La    3.960554    3.766322   10.314551
La    7.741209    0.217202   10.210480
La    0.036408    0.022285    6.400712
La    0.000321    3.859821    6.432950
La    7.723503    0.098342    2.447077
La    3.899777    3.900558    2.359167
Sr    0.073968    3.879573   10.383880
Sr    3.907568    0.032268   10.258241
Sr    3.865201    3.812598    6.397701
Sr    3.876791    7.761453    6.402586
Sr    3.891148    7.766994    2.440182
Sr    0.009445    3.977103    2.423290
Co    5.982732    5.818118   12.027034
Co    1.745627    6.043242   12.121538
Co    5.876275    1.901133   12.186590
Co    2.030784    1.993472   12.236886
Co    1.982352    1.950864    8.326210
Co    5.833381    1.962480    8.288047
Co    1.971973    5.827429    8.381532
Co    5.816469    5.834988    8.332724
Co    5.848310    5.840258    4.483326
Co    1.956520    5.836410    4.466396
Co    5.807698    1.977619    4.444846
Co    1.944884    1.959333    4.433685
Co    1.957320    1.955955    0.625809
Co    5.841898    1.955559    0.589507
Co    1.960518    5.919425    0.613787
Co    5.844098    5.853743    0.609597
 O    7.632288    1.911401   12.349525
 O    5.660097    4.102289   12.217445
 O    2.053018    0.034498   12.291456
 O    2.107945    3.756328   12.290195
 O    5.878729    7.585775   12.028551
 O    0.040710    5.688123   12.320079
 O    4.080239    1.915237   12.057726
 O    6.113753    2.059098   10.196159
 O    2.378059    5.695890   10.409553
 O    5.416818    5.713166   10.227736
 O    1.699814    1.915461   10.271504
 O    3.957631    2.001331    8.608222
 O    0.132778    5.890535    8.720477
 O    5.918267    0.034486    8.432397
 O    1.909030    3.795249    8.336899
 O    1.899471    0.084479    8.388100
 O    3.771379    5.816066    8.107026
 O    5.875384    3.872884    8.160995
 O    7.727463    1.901638    8.030802
 O    2.160905    1.895686    6.423085
 O    6.208380    5.960773    6.406892
 O    1.566213    5.848016    6.430844
 O    5.621577    1.839862    6.289152
 O    7.757058    1.823359    4.745721
 O    5.967268    4.023252    4.634359
 O    3.742421    5.754520    4.726825
 O    2.014248    0.116918    4.430577
 O    1.782774    3.794245    4.545928
 O    5.788129    7.668277    4.323404
 O    0.127511    6.010542    4.198658
 O    3.889427    2.139589    4.105989
 O    5.543565    5.651074    2.597020
 O    2.188568    5.695309    2.553016
 O    1.591187    1.954746    2.523826
 O    6.108463    2.099459    2.570380
 O    4.037344    1.984022    0.748200
 O    0.152578    5.926707    0.746403
 O    5.856892    7.656845    0.707251
 O    1.983700    3.702651    0.566679
 O    1.915570    0.192457    0.614603
 O    3.708564    5.860600    0.421521
 O    5.799526    4.080375    0.500731
 O    7.572265    1.937153    0.393413
 O    5.878729   -0.192735   12.028551
 O    7.911288   -1.887975    8.720477
 O    9.677980    0.084479    8.388100
 O    9.478324    1.915461   10.271504
 O   -1.990381   -0.110233    4.323404
 O   -1.570130   -1.817737    6.406892
 O   -2.156933    1.839862    6.289152
 O   -0.021452    1.823359    4.745721
 O   -1.860243    0.034486    8.432397
 O   -0.051047    1.901638    8.030802
 O    0.127511   -1.767968    4.198658
 O    1.566213   -1.930494    6.430844
 O   -1.811243    4.023252    4.634359
 O   -1.903126    3.872884    8.160995
 O   -1.570130    5.960773    6.406892
 O    5.856892   -0.121665    0.707251
 O    5.788129   -0.110233    4.323404
 O    7.931088   -1.851803    0.746403
 O    7.906021   -1.767968    4.198658
 O    9.369698    1.954746    2.523826
 O    9.694079    0.192457    0.614603
 O    9.792758    0.116918    4.430577
 O   -0.146222    1.911401   12.349525
 O   -1.664757    2.059098   10.196159
 O   -2.118413    4.102289   12.217445
 O    2.378059   -2.082620   10.409553
 O    3.771379   -1.962444    8.107026
 O    5.416818   -2.065344   10.227736
 O    2.014248    7.895428    4.430577
 O    1.899471    7.862989    8.388100
 O    2.160905    9.674196    6.423085
 O    5.621577    9.618372    6.289152
 O    5.918267    7.812996    8.432397
 O    1.915570    7.970967    0.614603
 O    4.037344    9.762532    0.748200
 O    3.889427    9.918099    4.105989
 O   -1.670047    2.099459    2.570380
 O   -0.206245    1.937153    0.393413
 O   -1.978984    4.080375    0.500731
 O   -2.234945    5.651074    2.597020
 O    7.819220    5.688123   12.320079
 O    2.053018    7.813008   12.291456
 O    7.911288    5.890535    8.720477
 O    7.906021    6.010542    4.198658
 O    7.931088    5.926707    0.746403
