123
Co1 La1 O3                              
La    3.827354    3.800585   10.316238
La    7.759233    0.074975    6.327789
La    3.921784    3.823647    2.168255
Sr    7.738954    0.116250   10.283627
Sr    7.703123    3.958981   10.384130
Sr    3.869416    7.708746   10.257696
Sr    3.893253    7.739895    6.343778
Sr    7.761650    3.987035    6.352714
Sr    3.893703    3.810532    6.324127
Sr    0.019020    0.092755    2.411032
Sr    3.892584    7.761866    2.351544
Sr    0.061062    3.915056    2.345680
Co    5.718370    1.808607   12.138359
Co    1.731519    6.015626   12.093378
Co    1.892380    1.891673   12.115033
Co    5.868764    5.932912   12.228593
Co    5.805442    1.959704    8.292732
Co    1.906020    5.848600    8.309465
Co    1.906288    1.970964    8.290764
Co    5.817399    5.838285    8.330357
Co    1.950803    1.961110    4.402785
Co    1.943570    5.849206    4.402821
Co    5.839756    5.851575    4.394843
Co    5.831561    1.968308    4.379896
Co    1.886440    1.906914    0.508629
Co    1.928703    5.949945    0.578501
Co    5.970189    5.875721    0.607562
Co    5.912933    1.836749    0.549152
 O    5.354008    5.739821   14.140738
 O    0.183230    1.885038   12.311460
 O    1.997580    3.947906   12.435293
 O    5.836264    3.688372   12.497746
 O    5.801385    0.088159   12.074361
 O    1.954976    7.774678   11.955009
 O    3.722975    1.944945   12.034224
 O    7.728325    5.883003   12.051019
 O    5.912219    2.177701   10.278847
 O    2.194402    5.584075   10.270642
 O    5.539442    5.622352   10.365113
 O    1.782871    2.306208   10.183599
 O    7.605818    5.848165    8.546281
 O    3.718673    1.994210    8.475809
 O    1.891569    7.636554    8.508835
 O    5.833676    0.154205    8.452534
 O    5.787522    3.760098    8.211193
 O    1.942490    4.065800    8.118972
 O    0.102280    1.910901    8.136292
 O    4.028020    5.843001    8.145730
 O    2.042575    1.672144    6.380549
 O    6.102918    6.055908    6.364428
 O    1.626166    6.087458    6.369130
 O    5.721890    1.755291    6.344121
 O    3.725607    5.819621    4.635044
 O    7.651704    1.882811    4.517146
 O    1.899279    3.735504    4.593287
 O    5.873275    4.069972    4.549198
 O    5.834767    7.657660    4.272078
 O    1.960956    0.161065    4.239410
 O    4.037934    2.037854    4.249906
 O    0.143455    5.898229    4.191828
 O    5.491886    5.700778    2.470774
 O    2.191397    5.562039    2.467715
 O    1.971258    2.160386    2.453300
 O    5.942189    2.231042    2.456487
 O    0.158728    5.875276    0.679805
 O    4.148695    1.930308    0.526534
 O    1.939496    0.133434    0.608371
 O    5.886586    7.640979    0.629358
 O    5.843217    4.164930    0.397220
 O    1.995107    3.624521    0.332210
 O    7.658382    1.918373    0.422671
 O    3.618376    5.833186    0.326224
 O    3.888758    5.915720   12.527187
 O    3.116586    5.565732   14.621116
 C    4.074439    5.743334   13.863762
 H    5.853701    3.868387   13.462778
 H    2.275103    4.018548   13.377666
 O    5.834767   -0.139920    4.272078
 O    6.102918   -1.741672    6.364428
 O    9.423746   -1.710122    6.369130
 O    9.758535    0.161065    4.239410
 O    7.899859    1.910901    8.136292
 O    9.840155    1.672144    6.380549
 O    7.605818   -1.949415    8.546281
 O    7.728325   -1.914577   12.051019
 O    9.689149   -0.161026    8.508835
 O    9.752556   -0.022902   11.955009
 O    9.580451    2.306208   10.183599
 O    7.980810    1.885038   12.311460
 O    9.795160    3.947906   12.435293
 O    9.991982    5.584075   10.270642
 O    3.718673    9.791790    8.475809
 O    3.722975    9.742525   12.034224
 O    5.833676    7.951785    8.452534
 O    5.801385    7.885739   12.074361
 O    1.960956    7.958645    4.239410
 O    2.042575    9.469724    6.380549
 O    4.037934    9.835434    4.249906
 O    5.721890    9.552871    6.344121
 O    9.696858    3.735504    4.593287
 O    9.740069    4.065800    8.118972
 O    7.941034    5.898229    4.191828
 O    9.423746    6.087458    6.369130
 O   -1.910994   -0.156600    0.629358
 O   -1.962813   -0.139920    4.272078
 O   -1.855391    2.231042    2.456487
 O   -0.139198    1.918373    0.422671
 O   -0.145875    1.882811    4.517146
 O    0.158728   -1.922304    0.679805
 O    0.143455   -1.899351    4.191828
 O    1.971258    9.957966    2.453300
 O    1.939496    7.931014    0.608371
 O    4.148695    9.727887    0.526534
 O   -1.954362    4.164930    0.397220
 O   -1.924304    4.069972    4.549198
 O   -2.305694    5.700778    2.470774
 O   -0.069255    5.883003   12.051019
 O    1.954976   -0.022902   11.955009
 O   -0.191761    5.848165    8.546281
 O    1.891569   -0.161026    8.508835
 O    7.956308    5.875276    0.679805
 O    5.886586   -0.156600    0.629358
 H   10.072683    4.018548   13.377666
