116
Co1 La1 O3                              
La    3.932428    3.829074    9.901035
La    7.739949    0.111963    6.412514
La    3.921784    3.823647    2.168255
Sr    7.743609    0.156747   10.231746
Sr    7.754194    3.936635   10.196649
Sr    3.959171    7.702153   10.106348
Sr    3.903113    7.743791    6.353376
Sr    7.751809    3.980927    6.388355
Sr    3.902539    3.811810    6.277851
Sr    0.019020    0.092755    2.411032
Sr    3.892584    7.761866    2.351544
Sr    0.061062    3.915056    2.345680
Co    5.650090    1.889492   12.072861
Co    1.861470    6.122658   12.226170
Co    2.057707    1.840864   11.992250
Co    6.037227    5.908963   12.200256
Co    5.846503    1.956880    8.253736
Co    1.910312    5.874036    8.210649
Co    1.939699    1.951639    8.259045
Co    5.862889    5.866728    8.293978
Co    1.947824    1.959754    4.407326
Co    1.929891    5.857556    4.388311
Co    5.839654    5.852435    4.390138
Co    5.841433    1.968204    4.395008
Co    1.886440    1.906914    0.508629
Co    1.928703    5.949945    0.578501
Co    5.970189    5.875721    0.607562
Co    5.912933    1.836749    0.549152
 O    4.306985    5.793774   13.114527
 O    0.415157    1.964991   12.334549
 O    6.152410    3.677727   12.654018
 O    5.755677    0.128270   12.082952
 O    2.351780    0.042087   12.164892
 O    3.750286    2.386860   12.030759
 O    7.795352    5.898622   12.219279
 O    5.956211    2.210135   10.178615
 O    2.236616    5.483444   10.596607
 O    5.579916    5.600636   10.358817
 O    1.848607    2.260399   10.154856
 O    7.737102    5.777247    8.565796
 O    3.874700    1.855818    8.441152
 O    1.843933    7.729982    8.515244
 O    5.984739    7.783813    8.525485
 O    5.692935    3.918597    8.091223
 O    2.048532    3.964995    8.142900
 O    0.009919    1.997642    8.104583
 O    3.944844    5.917037    8.199816
 O    2.039411    1.674535    6.404043
 O    6.101314    6.089019    6.432337
 O    1.610642    6.069801    6.321124
 O    5.732768    1.689741    6.368976
 O    3.710824    5.817867    4.622509
 O    7.659222    1.875203    4.524292
 O    1.881374    3.733841    4.590660
 O    5.883061    4.064044    4.561897
 O    5.819491    7.660585    4.267775
 O    1.973214    0.164510    4.238888
 O    4.037479    2.048857    4.262258
 O    0.134455    5.899776    4.169011
 O    5.491886    5.700778    2.470774
 O    2.191397    5.562039    2.467715
 O    1.971258    2.160386    2.453300
 O    5.942189    2.231042    2.456487
 O    0.158728    5.875276    0.679805
 O    4.148695    1.930308    0.526534
 O    1.939496    0.133434    0.608371
 O    5.886586    7.640979    0.629358
 O    5.843217    4.164930    0.397220
 O    1.995107    3.624521    0.332210
 O    7.658382    1.918373    0.422671
 O    3.618376    5.833186    0.326224
 O    2.351947    5.139474   13.922897
 C    3.619750    5.166582   13.982627
 H    4.123377    4.648116   14.816212
 H    7.003430    3.583806   13.129498
 O    5.819491   -0.136994    4.267775
 O    6.101314   -1.708560    6.432337
 O    5.984739   -0.013766    8.525485
 O    9.408222   -1.727778    6.321124
 O    9.641513   -0.067598    8.515244
 O    7.807499    1.997642    8.104583
 O    9.836990    1.674535    6.404043
 O    7.737102   -2.020332    8.565796
 O    7.795352   -1.898958   12.219279
 O    9.646187    2.260399   10.154856
 O    8.212737    1.964991   12.334549
 O    9.846112    3.964995    8.142900
 O   10.034196    5.483444   10.596607
 O    2.351780    7.839667   12.164892
 O    3.874700    9.653399    8.441152
 O    5.755677    7.925849   12.082952
 O    1.973214    7.962090    4.238888
 O    2.039411    9.472115    6.404043
 O    4.037479    9.846437    4.262258
 O    5.732768    9.487321    6.368976
 O    9.678953    3.733841    4.590660
 O    7.932034    5.899776    4.169011
 O    9.408222    6.069801    6.321124
 O   -1.910994   -0.156600    0.629358
 O   -1.978089   -0.136994    4.267775
 O   -1.855391    2.231042    2.456487
 O   -0.139198    1.918373    0.422671
 O   -0.138358    1.875203    4.524292
 O    0.158728   -1.922304    0.679805
 O    0.134455   -1.897804    4.169011
 O    1.971258    9.957966    2.453300
 O    1.939496    7.931014    0.608371
 O    4.148695    9.727887    0.526534
 O   -1.954362    4.164930    0.397220
 O   -1.914518    4.064044    4.561897
 O   -2.305694    5.700778    2.470774
 O   -0.002228    5.898622   12.219279
 O   -0.060478    5.777247    8.565796
 O    1.843933   -0.067598    8.515244
 O    7.956308    5.875276    0.679805
 O    5.886586   -0.156600    0.629358
