119
 Glycerol on Pt(111)                    
La    3.897927    3.873497   10.001633
La    0.023426    0.051270    6.354818
La    3.921784    3.823647    2.168255
Sr    7.760336    0.210594   10.172194
Sr    7.739646    3.970562   10.120147
Sr    3.893704    0.026428   10.201713
Sr    3.876540    7.713645    6.418773
Sr    7.789650    3.986040    6.363974
Sr    3.883107    3.825680    6.328432
Sr    0.019020    0.092755    2.411032
Sr    3.892584    7.761866    2.351544
Sr    0.061062    3.915056    2.345680
Co    5.841343    1.954472   12.120667
Co    1.704675    6.014461   12.062115
Co    2.023983    1.949295   12.098414
Co    6.014047    6.040611   12.082866
Co    5.839110    1.951301    8.236687
Co    1.913957    5.894117    8.327260
Co    1.927095    1.963130    8.235762
Co    5.841018    5.888967    8.285314
Co    1.961377    1.955620    4.398393
Co    1.955801    5.846535    4.410471
Co    5.836459    5.849783    4.403044
Co    5.836576    1.953166    4.384114
Co    1.886440    1.906914    0.508629
Co    1.928703    5.949945    0.578501
Co    5.970189    5.875721    0.607562
Co    5.912933    1.836749    0.549152
 O    7.603808    2.025831   12.294945
 O    2.393004    3.988859   12.504468
 O    5.736885    3.911962   12.571880
 O    7.795922    1.839766    8.133569
 O    1.995950    7.784121   12.227537
 O    4.047486    1.934517   12.075202
 O    0.004336    5.519141   12.426562
 O    5.913424    2.184866   10.117837
 O    2.209134    5.681113   10.282222
 O    5.542094    5.644958   10.351702
 O    1.841398    2.182698   10.339476
 O    7.787400    6.013505    8.643313
 O    3.863672    2.065868    8.412402
 O    2.000371    0.074760    8.506111
 O    5.729059    7.722241    8.512359
 O    5.924432    4.028654    8.200107
 O    1.866673    3.866433    8.232419
 O    5.843776    7.794302   12.024284
 O    3.873565    5.658370    8.140042
 O    2.038980    1.708635    6.310863
 O    6.122404    6.094326    6.444242
 O    1.659946    6.088764    6.443096
 O    5.724954    1.788813    6.396628
 O    3.741652    5.844407    4.637051
 O    7.645678    1.901655    4.524557
 O    1.931217    3.743526    4.572336
 O    5.856093    4.070590    4.572165
 O    5.856298    7.659291    4.295294
 O    1.938052    0.143074    4.220441
 O    4.049560    2.006028    4.254398
 O    0.139567    5.874549    4.230996
 O    5.491886    5.700778    2.470774
 O    2.191397    5.562039    2.467715
 O    1.971258    2.160386    2.453300
 O    5.942189    2.231042    2.456487
 O    0.158728    5.875276    0.679805
 O    4.148695    1.930308    0.526534
 O    1.939496    0.133434    0.608371
 O    5.886586    7.640979    0.629358
 O    5.843217    4.164930    0.397220
 O    1.995107    3.624521    0.332210
 O    7.658382    1.918373    0.422671
 O    3.618376    5.833186    0.326224
 O    5.546542    6.121185   14.306101
 C    6.430350    6.072844   15.150447
 H    6.647475    3.972852   12.947995
 H    6.178679    6.169408   16.225758
 H    3.230196    3.942295   13.010795
 H    7.491028    5.924428   14.854908
 O   -1.941282   -0.138289    4.295294
 O   -1.675176   -1.703254    6.444242
 O   -0.151902    1.901655    4.524557
 O   -0.001658    1.839766    8.133569
 O   -2.072626    1.788813    6.396628
 O    0.139567   -1.923030    4.230996
 O    1.659946   -1.708816    6.443096
 O    7.787400   -1.784075    8.643313
 O    5.729059   -0.075339    8.512359
 O    5.843776   -0.003277   12.024284
 O    9.793530   -0.013459   12.227537
 O    9.638978    2.182698   10.339476
 O    9.797951    0.074760    8.506111
 O    9.664252    3.866433    8.232419
 O   10.006714    5.681113   10.282222
 O    7.801916    5.519141   12.426562
 O    2.209134   -2.116467   10.282222
 O    1.995950   -0.013459   12.227537
 O    5.542094   -2.152622   10.351702
 O    1.938052    7.940654    4.220441
 O    2.038980    9.506214    6.310863
 O    2.000371    7.872340    8.506111
 O    3.863672    9.863448    8.412402
 O    5.724954    9.586393    6.396628
 O    9.728797    3.743526    4.572336
 O    7.937147    5.874549    4.230996
 O    9.457526    6.088764    6.443096
 O   -1.910994   -0.156601    0.629358
 O   -1.855391    2.231042    2.456487
 O   -0.139198    1.918373    0.422671
 O    0.158728   -1.922304    0.679805
 O    1.971258    9.957966    2.453300
 O    1.939496    7.931014    0.608371
 O    4.148695    9.727888    0.526534
 O    4.049560    9.803608    4.254398
 O   -1.954363    4.164930    0.397220
 O   -2.305694    5.700778    2.470774
 O   -0.193771    2.025831   12.294945
 O   -0.010180    6.013505    8.643313
 O    5.856298   -0.138289    4.295294
 O    7.956308    5.875276    0.679805
 O    5.886586   -0.156601    0.629358
