121
Co1 La1 O3                              
La    3.850773    3.885546   10.262576
La    7.719148    0.048234    6.367008
La    3.921784    3.823647    2.168255
Sr    7.746102    0.093603   10.273564
Sr    7.781030    3.952904   10.101891
Sr    3.915505    0.071753   10.344197
Sr    3.890164    7.743124    6.347128
Sr    7.758151    3.952155    6.354680
Sr    3.906013    3.798412    6.349495
Sr    0.019020    0.092755    2.411032
Sr    3.892584    7.761866    2.351544
Sr    0.061062    3.915056    2.345680
Co    6.110353    2.324048   12.198783
Co    1.827026    5.887677   12.163774
Co    1.920674    2.039302   12.141914
Co    6.116639    5.839178   12.328810
Co    5.811709    1.954577    8.302664
Co    1.950573    5.890976    8.304024
Co    1.921252    1.940872    8.290253
Co    5.786236    5.854860    8.317013
Co    1.944638    1.966130    4.395349
Co    1.936786    5.837601    4.411404
Co    5.834886    5.846150    4.385695
Co    5.822368    1.961403    4.380702
Co    1.886440    1.906914    0.508629
Co    1.928703    5.949945    0.578501
Co    5.970189    5.875721    0.607562
Co    5.912933    1.836749    0.549152
 O    5.671576    7.449655   12.277341
 O    0.069474    2.025857   12.492057
 O    2.023607    4.119321   12.066520
 O    5.632261    4.114717   12.368098
 O    1.929903    7.649835   12.078135
 O    3.693487    2.033050   12.121082
 O    7.763779    5.825076   11.708062
 O    5.931233    2.040920   10.397201
 O    2.319773    5.815432   10.226607
 O    5.479741    5.679007   10.173960
 O    1.728429    2.034654   10.138811
 O    7.596810    5.964735    8.501036
 O    3.853822    2.114006    8.565481
 O    1.966301    7.689049    8.362631
 O    5.735392    0.145706    8.414257
 O    5.889415    3.769261    8.220951
 O    1.872457    4.071725    8.249065
 O    7.769938    1.832058    8.085153
 O    4.003366    5.766183    8.023624
 O    2.078401    1.855631    6.479225
 O    6.097691    6.058459    6.352818
 O    1.597256    6.024770    6.360110
 O    5.673774    1.766317    6.297069
 O    3.709084    5.819716    4.633773
 O    7.651491    1.873339    4.545703
 O    1.894903    3.738793    4.572191
 O    5.865446    4.067663    4.538985
 O    5.822102    7.648734    4.251788
 O    1.958977    0.172506    4.327639
 O    4.024158    2.034864    4.223752
 O    0.144261    5.895187    4.165899
 O    5.491886    5.700778    2.470774
 O    2.191397    5.562039    2.467715
 O    1.971258    2.160386    2.453300
 O    5.942189    2.231042    2.456487
 O    0.158728    5.875276    0.679805
 O    4.148695    1.930308    0.526534
 O    1.939496    0.133434    0.608371
 O    5.886586    7.640979    0.629358
 O    5.843217    4.164930    0.397220
 O    1.995107    3.624521    0.332210
 O    7.658382    1.918373    0.422671
 O    3.618376    5.833186    0.326224
 O    2.166835    5.895185   13.974925
 C    6.497877    5.844768   14.262168
 H    7.302777    5.112257   14.370276
 H    6.796075    6.867782   14.495979
 H    5.531547    5.543293   14.677026
 H    2.081166    6.832655   14.247130
 O    5.822102   -0.148846    4.251788
 O    6.097691   -1.739121    6.352818
 O    7.596810   -1.832845    8.501036
 O    9.763881   -0.108531    8.362631
 O    9.394836   -1.772810    6.360110
 O    9.756557    0.172506    4.327639
 O    9.875980    1.855631    6.479225
 O    5.671576   -0.347925   12.277341
 O    7.763779   -1.972504   11.708062
 O    9.727483   -0.147745   12.078135
 O    9.526009    2.034654   10.138811
 O    7.867054    2.025857   12.492057
 O    9.670036    4.071725    8.249065
 O    9.821187    4.119321   12.066520
 O    1.966301   -0.108531    8.362631
 O    2.319773   -1.982148   10.226607
 O    1.929903   -0.147745   12.078135
 O    5.479741   -2.118573   10.173960
 O    1.958977    7.970086    4.327639
 O    2.078401    9.653212    6.479225
 O    5.735392    7.943286    8.414257
 O    5.673774    9.563896    6.297069
 O    9.692483    3.738793    4.572191
 O    7.941841    5.895187    4.165899
 O    9.394836    6.024770    6.360110
 O   -1.910994   -0.156600    0.629358
 O   -1.975478   -0.148846    4.251788
 O   -1.855391    2.231042    2.456487
 O   -0.139198    1.918373    0.422671
 O   -0.146089    1.873339    4.545703
 O    0.158728   -1.922304    0.679805
 O    0.144261   -1.902393    4.165899
 O    1.971258    9.957966    2.453300
 O    1.939496    7.931014    0.608371
 O    4.148695    9.727887    0.526534
 O    4.024158    9.832444    4.223752
 O   -1.954362    4.164930    0.397220
 O   -1.932134    4.067663    4.538985
 O   -2.305694    5.700778    2.470774
 O   -0.033801    5.825076   11.708062
 O   -0.200769    5.964735    8.501036
 O   -0.027642    1.832058    8.085153
 O    7.956308    5.875276    0.679805
 O    5.886586   -0.156600    0.629358
