77
Co1 La1 Sr1 O3
La	 3.81388 3.80705 10.24844
La	 7.73057 0.08051 6.36313
La	 3.92178 3.82365 2.16826
Sr	 7.75316 0.17813 10.27624
Sr	 7.76034 3.96279 10.25594
Sr	 3.85773 0.04944 10.26599
Sr	 3.89090 7.75365 6.35266
Sr	 7.77009 3.96793 6.35771
Sr	 3.90765 3.81023 6.34355
Sr	 0.01902 0.09275 2.41103
Sr	 3.89258 7.76187 2.35154
Sr	 0.06106 3.91506 2.34568
Co	 5.81915 1.94097 12.15352
Co	 1.83022 5.95638 12.09002
Co	 1.89633 1.97530 12.14029
Co	 5.85712 5.98561 12.14046
Co	 5.81534 1.98521 8.28192
Co	 1.93841 5.88231 8.29774
Co	 1.91497 1.96121 8.26110
Co	 5.80829 5.86046 8.32194
Co	 1.95147 1.97257 4.38702
Co	 1.93869 5.84545 4.41033
Co	 5.83834 5.85385 4.39200
Co	 5.82893 1.96833 4.38183
Co	 1.88644 1.90691 0.50863
Co	 1.92870 5.94995 0.57850
Co	 5.97019 5.87572 0.60756
Co	 5.91293 1.83675 0.54915
O	 7.57849 1.93999 12.32575
O	 1.87007 3.74695 12.17020
O	 6.00947 4.12090 12.68382
O	 5.75141 7.73274 12.09771
O	 1.94670 0.18673 12.12484
O	 4.01815 2.07388 12.08279
O	 0.06917 5.93819 12.03898
O	 5.91168 2.28732 10.23992
O	 2.27479 5.75354 10.24134
O	 5.46413 5.59059 10.28688
O	 1.79079 2.05289 10.10330
O	 7.59099 5.94211 8.58248
O	 3.83401 2.10081 8.48879
O	 1.95245 7.67992 8.39132
O	 5.76380 0.17363 8.48413
O	 5.87311 3.79146 8.12037
O	 1.89168 4.07439 8.23403
O	 7.79530 1.84944 8.08971
O	 4.02519 5.80820 8.08188
O	 2.05881 1.83973 6.44465
O	 6.09975 6.09898 6.39162
O	 1.59212 6.03939 6.38075
O	 5.68978 1.72481 6.32006
O	 3.71552 5.83286 4.64226
O	 7.65234 1.88866 4.52950
O	 1.90511 3.74804 4.56736
O	 5.86700 4.07408 4.56316
O	 5.83041 7.65831 4.25539
O	 1.95830 0.17399 4.31052
O	 4.03275 2.03996 4.23406
O	 0.14096 5.89606 4.18297
O	 5.49189 5.70078 2.47077
O	 2.19140 5.56204 2.46771
O	 1.97126 2.16039 2.45330
O	 5.94219 2.23104 2.45649
O	 0.15873 5.87528 0.67980
O	 4.14869 1.93031 0.52653
O	 1.93950 0.13343 0.60837
O	 5.88659 7.64098 0.62936
O	 5.84322 4.16493 0.39722
O	 1.99511 3.62452 0.33221
O	 7.65838 1.91837 0.42267
O	 3.61838 5.83319 0.32622
O	 3.69556 5.78275 12.66609
C	 3.65174 5.58998 14.08811
H	 6.90147 4.00383 13.07236
H	 4.19842 6.40089 14.59885
H	 2.61047 5.61106 14.46254
H	 4.08643 4.61453 14.35244
