120
O vacancy @ La0.25Sr0.75CoO3 surface
La    3.922776    3.779588   10.398437
La    7.757311    0.055462    6.325732
La    3.921784    3.823647    2.168255
Sr    7.776952    0.073890   10.260598
Sr    0.024460    3.827924   10.252506
Sr    3.893013    0.001768   10.269429
Sr    3.863222    7.766685    6.311124
Sr    7.782532    3.955412    6.353845
Sr    3.893345    3.809394    6.334898
Sr    0.019020    0.092755    2.411032
Sr    3.892584    7.761866    2.351544
Sr    0.061062    3.915056    2.345680
Co    5.761718    1.800816   12.239473
Co    1.820023    5.851623   12.087552
Co    1.792706    1.759324   12.239849
Co    6.016662    5.855144   12.077657
Co    5.836910    1.937909    8.308998
Co    1.958537    5.842889    8.300964
Co    1.949244    1.940810    8.318755
Co    5.811243    5.840779    8.315612
Co    1.946873    1.962295    4.401604
Co    1.942015    5.838435    4.401453
Co    5.838211    5.840011    4.400104
Co    5.832400    1.967009    4.384890
Co    1.886440    1.906914    0.508629
Co    1.928703    5.949945    0.578501
Co    5.970189    5.875721    0.607562
Co    5.912933    1.836749    0.549152
 O    0.016456    1.924930   12.439069
 O    2.188240    4.208838   12.385687
 O    5.668658    4.194419   12.340374
 O    5.817999    7.606548   12.190964
 O    2.052472    7.616659   12.212770
 O    3.977726    1.945492   12.312984
 O    0.019548    5.811021   11.699519
 O    5.944805    2.121224   10.338633
 O    2.401466    5.711339   10.275115
 O    5.402945    5.738998   10.262159
 O    1.976485    2.128693   10.372770
 O    0.179672    5.839360    8.576956
 O    4.034128    1.985581    8.482560
 O    1.928494    0.143931    8.485167
 O    5.869800    7.654775    8.439892
 O    5.830081    4.034468    8.248503
 O    1.957995    3.744057    8.245288
 O    7.654199    1.911465    8.235031
 O    3.738038    5.839806    8.049030
 O    1.978558    1.736638    6.387240
 O    6.139843    6.008676    6.381539
 O    1.631014    6.067626    6.363556
 O    5.741603    1.749151    6.384895
 O    3.724309    5.819416    4.638032
 O    7.649432    1.882551    4.525902
 O    1.907234    3.745038    4.586687
 O    5.867874    4.051276    4.552642
 O    5.840552    7.655602    4.298872
 O    1.954296    0.155715    4.266959
 O    4.035607    2.015306    4.290930
 O    0.142695    5.892927    4.190094
 O    5.491886    5.700778    2.470774
 O    2.191397    5.562039    2.467715
 O    1.971258    2.160386    2.453300
 O    5.942189    2.231042    2.456487
 O    0.158728    5.875276    0.679805
 O    4.148695    1.930308    0.526534
 O    1.939496    0.133434    0.608371
 O    5.886586    7.640979    0.629358
 O    5.843217    4.164930    0.397220
 O    1.995107    3.624521    0.332210
 O    7.658382    1.918373    0.422671
 O    3.618376    5.833186    0.326224
 O    5.840552   -0.141978    4.298872
 O    5.869800   -0.142805    8.439892
 O    6.139843   -1.788904    6.381539
 O    7.940274   -1.904653    4.190094
 O    9.428594   -1.729954    6.363556
 O    9.751876    0.155715    4.266959
 O    9.776137    1.736638    6.387240
 O    5.817999   -0.191032   12.190964
 O    7.977252   -1.958220    8.576956
 O    9.850052   -0.180921   12.212770
 O    7.817128   -1.986558   11.699519
 O    9.726074    0.143931    8.485167
 O    7.814035    1.924930   12.439069
 O    9.774065    2.128693   10.372770
 O   -0.143381    1.911465    8.235031
 O   -1.852775    2.121224   10.338633
 O   -1.967498    4.034468    8.248503
 O    2.052472   -0.180921   12.212770
 O    2.401466   -2.086241   10.275115
 O    3.738038   -1.957774    8.049030
 O    5.402945   -2.058582   10.262159
 O    1.954296    7.953295    4.266959
 O    1.928494    7.941511    8.485167
 O    1.978558    9.534218    6.387240
 O    4.035607    9.812885    4.290930
 O    4.034128    9.783161    8.482560
 O    5.741603    9.546731    6.384895
 O    9.704814    3.745038    4.586687
 O    9.755574    3.744057    8.245288
 O    7.940274    5.892927    4.190094
 O    7.977252    5.839360    8.576956
 O    9.428594    6.067626    6.363556
 O   -1.910994   -0.156600    0.629358
 O   -1.957027   -0.141978    4.298872
 O   -1.855391    2.231042    2.456487
 O   -0.139198    1.918373    0.422671
 O   -0.148148    1.882551    4.525902
 O    0.158728   -1.922304    0.679805
 O    0.142695   -1.904653    4.190094
 O    1.971258    9.957966    2.453300
 O    1.939496    7.931014    0.608371
 O    4.148695    9.727887    0.526534
 O   -1.954362    4.164930    0.397220
 O   -1.929706    4.051276    4.552642
 O   -2.305694    5.700778    2.470774
 O    7.817128    5.811021   11.699519
 O    7.956308    5.875276    0.679805
 O    5.886586   -0.156600    0.629358
Sr    7.822040    3.827924   10.252506
